# created with PyMOL 3.0.0
@<TRIPOS>MOLECULE
CRBN_Q96SW2
127 123 17              
SMALL
USER_CHARGES
@<TRIPOS>ATOM
1	   N	-14.408	4.434	13.337	N.am	1	CYS188	0.000	
2	  CA	-15.626	4.008	14.018	C.3	1	CYS188	0.000	
3	   C	-15.691	2.478	14.131	C.2	1	CYS188	0.000	
4	   O	-16.046	1.772	13.178	O.2	1	CYS188	0.000	
5	  CB	-16.840	4.594	13.286	C.3	1	CYS188	0.000	
6	  SG	-18.374	4.159	14.159	S.3	1	CYS188	0.000	
7	   N	-15.396	1.969	15.329	N.am	2	VAL189	0.000	
8	  CA	-15.515	0.547	15.669	C.3	2	VAL189	0.000	
9	   C	-16.880	0.270	16.289	C.2	2	VAL189	0.000	
10	   O	-17.167	0.675	17.413	O.2	2	VAL189	0.000	
11	  CB	-14.371	0.080	16.586	C.3	2	VAL189	0.000	
12	 CG1	-14.421	-1.444	16.771	C.3	2	VAL189	0.000	
13	 CG2	-13.015	0.443	15.973	C.3	2	VAL189	0.000	
14	   N	-17.727	-0.448	15.552	N.am	3	LEU190	0.000	
15	  CA	-19.041	-0.876	16.026	C.3	3	LEU190	0.000	
16	   C	-18.963	-2.292	16.614	C.2	3	LEU190	0.000	
17	   O	-18.287	-3.152	16.040	O.2	3	LEU190	0.000	
18	  CB	-20.070	-0.790	14.886	C.3	3	LEU190	0.000	
19	  CG	-20.270	0.626	14.313	C.3	3	LEU190	0.000	
20	 CD1	-21.259	0.565	13.149	C.3	3	LEU190	0.000	
21	 CD2	-20.813	1.605	15.357	C.3	3	LEU190	0.000	
22	   N	-19.666	-2.580	17.724	N.am	4	PRO191	0.000	
23	  CA	-19.806	-3.947	18.201	C.3	4	PRO191	0.000	
24	   C	-20.641	-4.784	17.219	C.2	4	PRO191	0.000	
25	   O	-21.291	-4.265	16.310	O.2	4	PRO191	0.000	
26	  CB	-20.468	-3.818	19.575	C.3	4	PRO191	0.000	
27	  CG	-21.341	-2.573	19.417	C.3	4	PRO191	0.000	
28	  CD	-20.496	-1.676	18.513	C.3	4	PRO191	0.000	
29	   N	-20.664	-6.103	17.433	N.am	5	SER192	0.000	
30	  CA	-21.583	-6.998	16.717	C.3	5	SER192	0.000	
31	   C	-23.015	-6.465	16.788	C.2	5	SER192	0.000	
32	   O	-23.489	-6.124	17.867	O.2	5	SER192	0.000	
33	  CB	-21.538	-8.398	17.335	C.3	5	SER192	0.000	
34	  OG	-22.510	-9.254	16.756	O.3	5	SER192	0.000	
35	   N	-22.762	-20.743	11.034	N.am	6	TYR227	0.000	
36	  CA	-22.293	-19.475	11.585	C.3	6	TYR227	0.000	
37	   C	-23.425	-18.444	11.607	C.2	6	TYR227	0.000	
38	   O	-23.808	-17.986	12.681	O.2	6	TYR227	0.000	
39	  CB	-21.096	-18.990	10.761	C.3	6	TYR227	0.000	
40	  CG	-20.605	-17.619	11.157	C.2	6	TYR227	0.000	
41	 CD1	-21.101	-16.471	10.506	C.2	6	TYR227	0.000	
42	 CD2	-19.638	-17.500	12.172	C.2	6	TYR227	0.000	
43	 CE1	-20.607	-15.202	10.858	C.2	6	TYR227	0.000	
44	 CE2	-19.123	-16.235	12.503	C.2	6	TYR227	0.000	
45	  CZ	-19.593	-15.092	11.830	C.2	6	TYR227	0.000	
46	  OH	-19.058	-13.884	12.113	O.3	6	TYR227	0.000	
47	   N	-24.771	-17.054	15.175	N.am	7	LYS231	0.000	
48	  CA	-24.380	-15.663	15.475	C.3	7	LYS231	0.000	
49	   C	-25.604	-14.756	15.524	C.2	7	LYS231	0.000	
50	   O	-25.814	-14.066	16.510	O.2	7	LYS231	0.000	
51	  CB	-23.320	-15.168	14.463	C.3	7	LYS231	0.000	
52	  CG	-22.737	-13.791	14.850	C.3	7	LYS231	0.000	
53	  CD	-21.490	-13.414	14.027	C.3	7	LYS231	0.000	
54	  CE	-20.885	-12.070	14.479	C.3	7	LYS231	0.000	
55	  NZ	-19.665	-11.675	13.720	N.4	7	LYS231	0.000	
56	   N	-22.037	-7.822	8.675	N.am	8	ASP249	0.000	
57	  CA	-21.121	-8.604	9.485	C.3	8	ASP249	0.000	
58	   C	-19.712	-8.555	8.898	C.2	8	ASP249	0.000	
59	   O	-19.515	-8.946	7.746	O.2	8	ASP249	0.000	
60	  CB	-21.658	-10.026	9.523	C.3	8	ASP249	0.000	
61	  CG	-20.783	-10.896	10.403	C.2	8	ASP249	0.000	
62	 OD1	-20.758	-10.603	11.614	O.co2	8	ASP249	0.000	
63	 OD2	-20.211	-11.877	9.880	O.co2	8	ASP249	0.000	
64	   N	-18.735	-8.092	9.681	N.am	9	ALA250	0.000	
65	  CA	-17.368	-7.906	9.202	C.3	9	ALA250	0.000	
66	   C	-16.774	-9.206	8.652	C.2	9	ALA250	0.000	
67	   O	-16.234	-9.221	7.550	O.2	9	ALA250	0.000	
68	  CB	-16.492	-7.385	10.344	C.3	9	ALA250	0.000	
69	   N	-16.898	-10.312	9.389	N.am	10	GLU251	0.000	
70	  CA	-16.313	-11.592	8.995	C.3	10	GLU251	0.000	
71	   C	-16.957	-12.144	7.720	C.2	10	GLU251	0.000	
72	   O	-16.249	-12.632	6.835	O.2	10	GLU251	0.000	
73	  CB	-16.420	-12.613	10.137	C.3	10	GLU251	0.000	
74	  CG	-15.763	-12.154	11.452	C.3	10	GLU251	0.000	
75	  CD	-16.781	-11.577	12.449	C.2	10	GLU251	0.000	
76	 OE1	-16.936	-12.160	13.547	O.co2	10	GLU251	0.000	
77	 OE2	-17.521	-10.631	12.112	O.co2	10	GLU251	0.000	
78	   N	-15.712	-9.746	4.785	N.am	11	MET254	0.000	
79	  CA	-14.317	-10.088	4.500	C.3	11	MET254	0.000	
80	   C	-14.195	-11.426	3.760	C.2	11	MET254	0.000	
81	   O	-13.438	-11.506	2.801	O.2	11	MET254	0.000	
82	  CB	-13.487	-10.135	5.791	C.3	11	MET254	0.000	
83	  CG	-13.223	-8.756	6.404	C.3	11	MET254	0.000	
84	  SD	-12.002	-8.767	7.749	S.3	11	MET254	0.000	
85	  CE	-12.818	-9.811	8.983	C.3	11	MET254	0.000	
86	   N	-7.987	-8.018	11.081	N.am	12	ASN276	0.000	
87	  CA	-8.737	-6.866	11.567	C.3	12	ASN276	0.000	
88	   C	-9.545	-6.242	10.409	C.2	12	ASN276	0.000	
89	   O	-8.946	-5.903	9.386	O.2	12	ASN276	0.000	
90	  CB	-7.749	-5.872	12.196	C.3	12	ASN276	0.000	
91	  CG	-8.416	-4.660	12.831	C.2	12	ASN276	0.000	
92	 ND2	-7.822	-4.103	13.854	N.pl3	12	ASN276	0.000	
93	 OD1	-9.479	-4.206	12.441	O.2	12	ASN276	0.000	
94	   N	-10.871	-6.039	10.554	N.am	13	PRO277	0.000	
95	  CA	-11.705	-5.429	9.517	C.3	13	PRO277	0.000	
96	   C	-11.237	-4.047	9.051	C.2	13	PRO277	0.000	
97	   O	-11.401	-3.719	7.878	O.2	13	PRO277	0.000	
98	  CB	-13.106	-5.338	10.130	C.3	13	PRO277	0.000	
99	  CG	-13.120	-6.471	11.153	C.3	13	PRO277	0.000	
100	  CD	-11.691	-6.480	11.673	C.3	13	PRO277	0.000	
101	   N	-10.652	-3.244	9.947	N.am	14	ILE278	0.000	
102	  CA	-10.137	-1.905	9.631	C.3	14	ILE278	0.000	
103	   C	-8.987	-2.034	8.632	C.2	14	ILE278	0.000	
104	   O	-9.093	-1.548	7.506	O.2	14	ILE278	0.000	
105	  CB	-9.690	-1.170	10.916	C.3	14	ILE278	0.000	
106	 CG1	-10.868	-0.988	11.900	C.3	14	ILE278	0.000	
107	 CG2	-9.065	0.192	10.569	C.3	14	ILE278	0.000	
108	 CD1	-10.400	-0.591	13.305	C.3	14	ILE278	0.000	
109	   N	-16.477	3.862	9.061	N.am	15	SER303	0.000	
110	  CA	-16.745	2.503	9.548	C.3	15	SER303	0.000	
111	   C	-16.220	1.454	8.576	C.2	15	SER303	0.000	
112	   O	-16.608	1.441	7.406	O.2	15	SER303	0.000	
113	  CB	-18.247	2.291	9.759	C.3	15	SER303	0.000	
114	  OG	-18.479	0.995	10.285	O.3	15	SER303	0.000	
115	   N	-15.432	0.501	9.078	N.am	16	ALA304	0.000	
116	  CA	-14.971	-0.639	8.287	C.3	16	ALA304	0.000	
117	   C	-16.134	-1.418	7.644	C.2	16	ALA304	0.000	
118	   O	-16.029	-1.834	6.499	O.2	16	ALA304	0.000	
119	  CB	-14.119	-1.543	9.185	C.3	16	ALA304	0.000	
120	   N	-17.281	-1.562	8.323	N.am	17	ILE305	0.000	
121	  CA	-18.446	-2.286	7.779	C.3	17	ILE305	0.000	
122	   C	-18.990	-1.604	6.521	C.2	17	ILE305	0.000	
123	   O	-19.249	-2.267	5.520	O.2	17	ILE305	0.000	
124	  CB	-19.570	-2.405	8.832	C.3	17	ILE305	0.000	
125	 CG1	-19.097	-3.030	10.160	C.3	17	ILE305	0.000	
126	 CG2	-20.768	-3.195	8.273	C.3	17	ILE305	0.000	
127	 CD1	-18.475	-4.423	10.036	C.3	17	ILE305	0.000	
@<TRIPOS>BOND
1 1 2 1
2 2 3 1
3 2 5 1
4 3 4 2
5 3 7 1
6 5 6 1
7 7 8 1
8 8 9 1
9 8 11 1
10 9 10 2
11 9 14 1
12 11 12 1
13 11 13 1
14 14 15 1
15 15 16 1
16 15 18 1
17 16 17 2
18 16 22 1
19 18 19 1
20 19 20 1
21 19 21 1
22 22 23 1
23 22 28 1
24 23 24 1
25 23 26 1
26 24 25 2
27 24 29 1
28 26 27 1
29 27 28 1
30 29 30 1
31 30 31 1
32 30 33 1
33 31 32 2
34 33 34 1
35 35 36 1
36 36 37 1
37 36 39 1
38 37 38 2
39 39 40 1
40 40 41 2
41 40 42 1
42 41 43 1
43 42 44 2
44 43 45 2
45 44 45 1
46 45 46 1
47 47 48 1
48 48 49 1
49 48 51 1
50 49 50 2
51 51 52 1
52 52 53 1
53 53 54 1
54 54 55 1
55 56 57 1
56 57 58 1
57 57 60 1
58 58 59 2
59 58 64 1
60 60 61 1
61 61 62 2
62 61 63 1
63 64 65 1
64 65 66 1
65 65 68 1
66 66 67 2
67 66 69 1
68 69 70 1
69 70 71 1
70 70 73 1
71 71 72 2
72 73 74 1
73 74 75 1
74 75 76 2
75 75 77 1
76 78 79 1
77 79 80 1
78 79 82 1
79 80 81 2
80 82 83 1
81 83 84 1
82 84 85 1
83 86 87 1
84 87 88 1
85 87 90 1
86 88 89 2
87 88 94 1
88 90 91 1
89 91 92 1
90 91 93 2
91 94 95 1
92 94 100 1
93 95 96 1
94 95 98 1
95 96 97 2
96 96 101 1
97 98 99 1
98 99 100 1
99 101 102 1
100 102 103 1
101 102 105 1
102 103 104 2
103 105 106 1
104 105 107 1
105 106 108 1
106 109 110 1
107 110 111 1
108 110 113 1
109 111 112 2
110 111 115 1
111 113 114 1
112 115 116 1
113 116 117 1
114 116 119 1
115 117 118 2
116 117 120 1
117 120 121 1
118 121 122 1
119 121 124 1
120 122 123 2
121 124 125 1
122 124 126 1
123 125 127 1
@<TRIPOS>SUBSTRUCTURE
1	CYS188	1	RESIDUE	1 A	CYS
2	VAL189	7	RESIDUE	1 A	VAL
3	LEU190	14	RESIDUE	1 A	LEU
4	PRO191	22	RESIDUE	1 A	PRO
5	SER192	29	RESIDUE	1 A	SER
6	TYR227	35	RESIDUE	1 A	TYR
7	LYS231	47	RESIDUE	1 A	LYS
8	ASP249	56	RESIDUE	1 A	ASP
9	ALA250	64	RESIDUE	1 A	ALA
10	GLU251	69	RESIDUE	1 A	GLU
11	MET254	78	RESIDUE	1 A	MET
12	ASN276	86	RESIDUE	1 A	ASN
13	PRO277	94	RESIDUE	1 A	PRO
14	ILE278	101	RESIDUE	1 A	ILE
15	SER303	109	RESIDUE	1 A	SER
16	ALA304	115	RESIDUE	1 A	ALA
17	ILE305	120	RESIDUE	1 A	ILE
