# created with PyMOL 3.0.0
@<TRIPOS>MOLECULE
VHL_P40337
172 168 20              
SMALL
USER_CHARGES
@<TRIPOS>ATOM
1	   N	-2.947	3.589	-0.125	N.am	1	ARG120	0.000	
2	  CA	-3.897	3.284	0.948	C.3	1	ARG120	0.000	
3	   C	-3.998	4.424	1.936	C.2	1	ARG120	0.000	
4	   O	-3.052	5.191	2.089	O.2	1	ARG120	0.000	
5	  CB	-3.474	1.985	1.659	C.3	1	ARG120	0.000	
6	  CG	-3.419	0.759	0.739	C.3	1	ARG120	0.000	
7	  CD	-4.803	0.482	0.157	C.3	1	ARG120	0.000	
8	  NE	-4.805	-0.631	-0.793	N.pl3	1	ARG120	0.000	
9	  CZ	-5.894	-1.238	-1.209	C.cat	1	ARG120	0.000	
10	 NH1	-7.061	-0.992	-0.698	N.pl3	1	ARG120	0.000	
11	 NH2	-5.846	-2.129	-2.143	N.pl3	1	ARG120	0.000	
12	   N	-6.286	1.344	5.942	N.am	2	HIS125	0.000	
13	  CA	-6.050	0.583	4.711	C.3	2	HIS125	0.000	
14	   C	-7.139	0.760	3.633	C.2	2	HIS125	0.000	
15	   O	-7.154	0.017	2.647	O.2	2	HIS125	0.000	
16	  CB	-5.717	-0.887	5.022	C.3	2	HIS125	0.000	
17	  CG	-4.507	-1.054	5.904	C.2	2	HIS125	0.000	
18	 CD2	-3.245	-1.387	5.496	C.2	2	HIS125	0.000	
19	 ND1	-4.461	-0.890	7.269	N.2	2	HIS125	0.000	
20	 CE1	-3.199	-1.110	7.671	C.2	2	HIS125	0.000	
21	 NE2	-2.422	-1.427	6.624	N.pl3	2	HIS125	0.000	
22	   N	-8.016	1.766	3.772	N.am	3	ASP126	0.000	
23	  CA	-8.997	2.125	2.741	C.3	3	ASP126	0.000	
24	   C	-8.284	2.368	1.395	C.2	3	ASP126	0.000	
25	   O	-7.239	3.026	1.342	O.2	3	ASP126	0.000	
26	  CB	-9.789	3.392	3.109	C.3	3	ASP126	0.000	
27	  CG	-10.730	3.304	4.311	C.2	3	ASP126	0.000	
28	 OD1	-11.418	2.280	4.467	O.co2	3	ASP126	0.000	
29	 OD2	-10.827	4.329	5.040	O.co2	3	ASP126	0.000	
30	   N	-8.830	1.829	0.303	N.am	4	GLY127	0.000	
31	  CA	-8.257	1.971	-1.038	C.3	4	GLY127	0.000	
32	   C	-8.373	3.392	-1.584	C.2	4	GLY127	0.000	
33	   O	-9.466	3.948	-1.640	O.2	4	GLY127	0.000	
34	   N	-7.257	3.973	-2.021	N.am	5	LEU128	0.000	
35	  CA	-7.226	5.271	-2.692	C.3	5	LEU128	0.000	
36	   C	-6.961	5.086	-4.181	C.2	5	LEU128	0.000	
37	   O	-6.328	4.114	-4.590	O.2	5	LEU128	0.000	
38	  CB	-6.178	6.180	-2.042	C.3	5	LEU128	0.000	
39	  CG	-6.419	6.414	-0.543	C.3	5	LEU128	0.000	
40	 CD1	-5.270	7.237	0.008	C.3	5	LEU128	0.000	
41	 CD2	-7.709	7.190	-0.276	C.3	5	LEU128	0.000	
42	   N	-7.413	6.047	-4.986	N.am	6	LEU129	0.000	
43	  CA	-7.145	6.032	-6.419	C.3	6	LEU129	0.000	
44	   C	-5.927	6.876	-6.746	C.2	6	LEU129	0.000	
45	   O	-5.707	7.924	-6.145	O.2	6	LEU129	0.000	
46	  CB	-8.356	6.496	-7.240	C.3	6	LEU129	0.000	
47	  CG	-9.627	5.670	-7.014	C.3	6	LEU129	0.000	
48	 CD1	-10.754	6.266	-7.859	C.3	6	LEU129	0.000	
49	 CD2	-9.481	4.194	-7.381	C.3	6	LEU129	0.000	
50	   N	-6.738	2.173	-9.690	N.am	7	GLU134	0.000	
51	  CA	-6.294	1.478	-8.467	C.3	7	GLU134	0.000	
52	   C	-4.772	1.245	-8.447	C.2	7	GLU134	0.000	
53	   O	-4.150	1.213	-7.384	O.2	7	GLU134	0.000	
54	  CB	-6.998	0.125	-8.343	C.3	7	GLU134	0.000	
55	  CG	-8.511	0.269	-8.130	C.3	7	GLU134	0.000	
56	  CD	-9.110	-1.057	-7.662	C.2	7	GLU134	0.000	
57	 OE1	-10.078	-1.568	-8.265	O.co2	7	GLU134	0.000	
58	 OE2	-8.595	-1.600	-6.662	O.co2	7	GLU134	0.000	
59	   N	-11.522	7.865	-3.849	N.am	8	PRO154	0.000	
60	  CA	-12.621	7.383	-4.668	C.3	8	PRO154	0.000	
61	   C	-13.953	7.914	-4.134	C.2	8	PRO154	0.000	
62	   O	-14.109	8.229	-2.948	O.2	8	PRO154	0.000	
63	  CB	-12.578	5.855	-4.585	C.3	8	PRO154	0.000	
64	  CG	-11.951	5.617	-3.220	C.3	8	PRO154	0.000	
65	  CD	-10.969	6.773	-3.056	C.3	8	PRO154	0.000	
66	   N	-14.958	7.921	-5.005	N.am	9	VAL155	0.000	
67	  CA	-16.351	8.032	-4.572	C.3	9	VAL155	0.000	
68	   C	-16.764	6.677	-3.999	C.2	9	VAL155	0.000	
69	   O	-17.251	5.806	-4.717	O.2	9	VAL155	0.000	
70	  CB	-17.270	8.504	-5.714	C.3	9	VAL155	0.000	
71	 CG1	-18.701	8.716	-5.202	C.3	9	VAL155	0.000	
72	 CG2	-16.783	9.837	-6.301	C.3	9	VAL155	0.000	
73	   N	-16.520	6.474	-2.703	N.am	10	TYR156	0.000	
74	  CA	-16.974	5.271	-2.007	C.3	10	TYR156	0.000	
75	   C	-18.492	5.126	-2.107	C.2	10	TYR156	0.000	
76	   O	-19.234	6.113	-2.095	O.2	10	TYR156	0.000	
77	  CB	-16.567	5.293	-0.528	C.3	10	TYR156	0.000	
78	  CG	-15.075	5.264	-0.280	C.2	10	TYR156	0.000	
79	 CD1	-14.316	4.131	-0.634	C.2	10	TYR156	0.000	
80	 CD2	-14.453	6.365	0.335	C.2	10	TYR156	0.000	
81	 CE1	-12.927	4.114	-0.401	C.2	10	TYR156	0.000	
82	 CE2	-13.072	6.339	0.586	C.2	10	TYR156	0.000	
83	  CZ	-12.301	5.229	0.190	C.2	10	TYR156	0.000	
84	  OH	-10.967	5.231	0.409	O.3	10	TYR156	0.000	
85	   N	-18.968	3.881	-2.121	N.am	11	THR157	0.000	
86	  CA	-20.397	3.629	-1.926	C.3	11	THR157	0.000	
87	   C	-20.833	4.180	-0.567	C.2	11	THR157	0.000	
88	   O	-20.047	4.217	0.383	O.2	11	THR157	0.000	
89	  CB	-20.769	2.142	-2.038	C.3	11	THR157	0.000	
90	 CG2	-20.231	1.482	-3.307	C.3	11	THR157	0.000	
91	 OG1	-20.306	1.405	-0.931	O.3	11	THR157	0.000	
92	   N	-19.991	1.597	2.136	N.am	12	GLU160	0.000	
93	  CA	-18.577	1.581	2.532	C.3	12	GLU160	0.000	
94	   C	-18.210	2.815	3.355	C.2	12	GLU160	0.000	
95	   O	-17.548	2.716	4.387	O.2	12	GLU160	0.000	
96	  CB	-17.685	1.472	1.283	C.3	12	GLU160	0.000	
97	  CG	-16.188	1.327	1.622	C.3	12	GLU160	0.000	
98	  CD	-15.914	0.143	2.568	C.2	12	GLU160	0.000	
99	 OE1	-15.031	0.267	3.448	O.co2	12	GLU160	0.000	
100	 OE2	-16.655	-0.856	2.457	O.co2	12	GLU160	0.000	
101	   N	-16.336	2.152	11.935	N.am	13	ARG167	0.000	
102	  CA	-15.023	1.609	12.333	C.3	13	ARG167	0.000	
103	   C	-14.159	2.645	13.061	C.2	13	ARG167	0.000	
104	   O	-13.418	2.276	13.963	O.2	13	ARG167	0.000	
105	  CB	-14.276	1.078	11.096	C.3	13	ARG167	0.000	
106	  CG	-14.846	-0.235	10.524	C.3	13	ARG167	0.000	
107	  CD	-14.225	-0.497	9.145	C.3	13	ARG167	0.000	
108	  NE	-14.730	-1.727	8.506	N.pl3	13	ARG167	0.000	
109	  CZ	-14.852	-1.936	7.202	C.cat	13	ARG167	0.000	
110	 NH1	-14.537	-1.041	6.299	N.pl3	13	ARG167	0.000	
111	 NH2	-15.302	-3.063	6.764	N.pl3	13	ARG167	0.000	
112	   N	-15.040	-7.163	8.315	N.am	14	ASP190	0.000	
113	  CA	-14.312	-7.323	7.056	C.3	14	ASP190	0.000	
114	   C	-13.583	-6.035	6.620	C.2	14	ASP190	0.000	
115	   O	-13.990	-5.325	5.696	O.2	14	ASP190	0.000	
116	  CB	-15.256	-7.883	5.980	C.3	14	ASP190	0.000	
117	  CG	-14.466	-8.310	4.745	C.2	14	ASP190	0.000	
118	 OD1	-13.299	-8.745	4.901	O.co2	14	ASP190	0.000	
119	 OD2	-14.965	-8.211	3.599	O.co2	14	ASP190	0.000	
120	   N	-12.500	-5.697	7.325	N.am	15	HIS191	0.000	
121	  CA	-11.701	-4.496	7.057	C.3	15	HIS191	0.000	
122	   C	-11.042	-4.495	5.657	C.2	15	HIS191	0.000	
123	   O	-10.694	-5.556	5.123	O.2	15	HIS191	0.000	
124	  CB	-10.641	-4.307	8.152	C.3	15	HIS191	0.000	
125	  CG	-11.206	-3.811	9.459	C.2	15	HIS191	0.000	
126	 CD2	-11.773	-4.565	10.451	C.2	15	HIS191	0.000	
127	 ND1	-11.204	-2.505	9.895	N.2	15	HIS191	0.000	
128	 CE1	-11.762	-2.476	11.119	C.2	15	HIS191	0.000	
129	 NE2	-12.118	-3.708	11.502	N.pl3	15	HIS191	0.000	
130	   N	-10.793	-3.304	5.070	N.am	16	PRO192	0.000	
131	  CA	-10.004	-3.170	3.850	C.3	16	PRO192	0.000	
132	   C	-8.619	-3.801	4.016	C.2	16	PRO192	0.000	
133	   O	-7.959	-3.627	5.041	O.2	16	PRO192	0.000	
134	  CB	-9.891	-1.668	3.575	C.3	16	PRO192	0.000	
135	  CG	-11.065	-1.067	4.337	C.3	16	PRO192	0.000	
136	  CD	-11.194	-1.989	5.542	C.3	16	PRO192	0.000	
137	   N	-8.167	-4.537	3.003	N.am	17	ASN193	0.000	
138	  CA	-6.902	-5.261	3.043	C.3	17	ASN193	0.000	
139	   C	-6.259	-5.259	1.651	C.2	17	ASN193	0.000	
140	   O	-6.899	-5.637	0.669	O.2	17	ASN193	0.000	
141	  CB	-7.176	-6.679	3.581	C.3	17	ASN193	0.000	
142	  CG	-5.935	-7.542	3.731	C.2	17	ASN193	0.000	
143	 ND2	-5.960	-8.517	4.605	N.pl3	17	ASN193	0.000	
144	 OD1	-4.934	-7.378	3.060	O.2	17	ASN193	0.000	
145	   N	-6.503	-8.737	-0.220	N.am	18	LYS196	0.000	
146	  CA	-7.831	-8.984	-0.811	C.3	18	LYS196	0.000	
147	   C	-8.011	-8.235	-2.129	C.2	18	LYS196	0.000	
148	   O	-8.540	-8.783	-3.093	O.2	18	LYS196	0.000	
149	  CB	-8.944	-8.552	0.151	C.3	18	LYS196	0.000	
150	  CG	-9.105	-9.482	1.360	C.3	18	LYS196	0.000	
151	  CD	-10.225	-8.987	2.287	C.3	18	LYS196	0.000	
152	  CE	-11.609	-9.023	1.625	C.3	18	LYS196	0.000	
153	  NZ	-12.570	-8.240	2.423	N.4	18	LYS196	0.000	
154	   N	-7.560	-6.986	-2.177	N.am	19	ASP197	0.000	
155	  CA	-7.645	-6.189	-3.397	C.3	19	ASP197	0.000	
156	   C	-6.676	-6.673	-4.476	C.2	19	ASP197	0.000	
157	   O	-7.047	-6.690	-5.645	O.2	19	ASP197	0.000	
158	  CB	-7.399	-4.721	-3.069	C.3	19	ASP197	0.000	
159	  CG	-8.612	-4.045	-2.432	C.2	19	ASP197	0.000	
160	 OD1	-9.757	-4.422	-2.754	O.co2	19	ASP197	0.000	
161	 OD2	-8.371	-3.070	-1.689	O.co2	19	ASP197	0.000	
162	   N	-8.489	-9.691	-5.971	N.am	20	ARG200	0.000	
163	  CA	-9.560	-9.189	-6.846	C.3	20	ARG200	0.000	
164	   C	-9.005	-8.629	-8.160	C.2	20	ARG200	0.000	
165	   O	-9.420	-9.071	-9.229	O.2	20	ARG200	0.000	
166	  CB	-10.394	-8.143	-6.091	C.3	20	ARG200	0.000	
167	  CG	-11.517	-7.585	-6.984	C.3	20	ARG200	0.000	
168	  CD	-12.340	-6.482	-6.315	C.3	20	ARG200	0.000	
169	  NE	-11.493	-5.373	-5.857	N.pl3	20	ARG200	0.000	
170	  CZ	-10.985	-4.392	-6.576	C.cat	20	ARG200	0.000	
171	 NH1	-11.158	-4.202	-7.855	N.pl3	20	ARG200	0.000	
172	 NH2	-10.253	-3.551	-5.925	N.pl3	20	ARG200	0.000	
@<TRIPOS>BOND
1 1 2 1
2 2 3 1
3 2 5 1
4 3 4 2
5 5 6 1
6 6 7 1
7 7 8 1
8 8 9 1
9 9 10 2
10 9 11 1
11 12 13 1
12 13 14 1
13 13 16 1
14 14 15 2
15 14 22 1
16 16 17 1
17 17 18 2
18 17 19 1
19 18 21 1
20 19 20 2
21 20 21 1
22 22 23 1
23 23 24 1
24 23 26 1
25 24 25 2
26 24 30 1
27 26 27 1
28 27 28 2
29 27 29 1
30 30 31 1
31 31 32 1
32 32 33 2
33 32 34 1
34 34 35 1
35 35 36 1
36 35 38 1
37 36 37 2
38 36 42 1
39 38 39 1
40 39 40 1
41 39 41 1
42 42 43 1
43 43 44 1
44 43 46 1
45 44 45 2
46 46 47 1
47 47 48 1
48 47 49 1
49 50 51 1
50 51 52 1
51 51 54 1
52 52 53 2
53 54 55 1
54 55 56 1
55 56 57 2
56 56 58 1
57 59 60 1
58 59 65 1
59 60 61 1
60 60 63 1
61 61 62 2
62 61 66 1
63 63 64 1
64 64 65 1
65 66 67 1
66 67 68 1
67 67 70 1
68 68 69 2
69 68 73 1
70 70 71 1
71 70 72 1
72 73 74 1
73 74 75 1
74 74 77 1
75 75 76 2
76 75 85 1
77 77 78 1
78 78 79 2
79 78 80 1
80 79 81 1
81 80 82 2
82 81 83 2
83 82 83 1
84 83 84 1
85 85 86 1
86 86 87 1
87 86 89 1
88 87 88 2
89 89 90 1
90 89 91 1
91 92 93 1
92 93 94 1
93 93 96 1
94 94 95 2
95 96 97 1
96 97 98 1
97 98 99 2
98 98 100 1
99 101 102 1
100 102 103 1
101 102 105 1
102 103 104 2
103 105 106 1
104 106 107 1
105 107 108 1
106 108 109 1
107 109 110 2
108 109 111 1
109 112 113 1
110 113 114 1
111 113 116 1
112 114 115 2
113 114 120 1
114 116 117 1
115 117 118 2
116 117 119 1
117 120 121 1
118 121 122 1
119 121 124 1
120 122 123 2
121 122 130 1
122 124 125 1
123 125 126 2
124 125 127 1
125 126 129 1
126 127 128 2
127 128 129 1
128 130 131 1
129 130 136 1
130 131 132 1
131 131 134 1
132 132 133 2
133 132 137 1
134 134 135 1
135 135 136 1
136 137 138 1
137 138 139 1
138 138 141 1
139 139 140 2
140 141 142 1
141 142 143 1
142 142 144 2
143 145 146 1
144 146 147 1
145 146 149 1
146 147 148 2
147 147 154 1
148 149 150 1
149 150 151 1
150 151 152 1
151 152 153 1
152 154 155 1
153 155 156 1
154 155 158 1
155 156 157 2
156 158 159 1
157 159 160 2
158 159 161 1
159 162 163 1
160 163 164 1
161 163 166 1
162 164 165 2
163 166 167 1
164 167 168 1
165 168 169 1
166 169 170 1
167 170 171 2
168 170 172 1
@<TRIPOS>SUBSTRUCTURE
1	ARG120	1	RESIDUE	1 A	ARG
2	HIS125	12	RESIDUE	1 A	HIS
3	ASP126	22	RESIDUE	1 A	ASP
4	GLY127	30	RESIDUE	1 A	GLY
5	LEU128	34	RESIDUE	1 A	LEU
6	LEU129	42	RESIDUE	1 A	LEU
7	GLU134	50	RESIDUE	1 A	GLU
8	PRO154	59	RESIDUE	1 A	PRO
9	VAL155	66	RESIDUE	1 A	VAL
10	TYR156	73	RESIDUE	1 A	TYR
11	THR157	85	RESIDUE	1 A	THR
12	GLU160	92	RESIDUE	1 A	GLU
13	ARG167	101	RESIDUE	1 A	ARG
14	ASP190	112	RESIDUE	1 A	ASP
15	HIS191	120	RESIDUE	1 A	HIS
16	PRO192	130	RESIDUE	1 A	PRO
17	ASN193	137	RESIDUE	1 A	ASN
18	LYS196	145	RESIDUE	1 A	LYS
19	ASP197	154	RESIDUE	1 A	ASP
20	ARG200	162	RESIDUE	1 A	ARG
