@<TRIPOS>MOLECULE
*****
 144 150 0 0 0
SMALL
GASTEIGER

@<TRIPOS>ATOM
      1 C          -1.9851    4.0768   -1.4603 C.3     1  UNL1       -0.0643
      2 C          -2.7922    4.4083   -0.3641 C.3     1  UNL1       -0.0407
      3 C          -2.7632    3.1269    0.5599 C.3     1  UNL1        0.0607
      4 C          -1.5542    1.9230    0.8608 C.2     1  UNL1        0.2237
      5 O          -1.8201    0.7113    0.8542 O.2     1  UNL1       -0.2749
      6 N          -0.1989    2.1440    1.1260 N.am    1  UNL1       -0.2875
      7 C           0.9190    1.3897    0.4493 C.3     1  UNL1        0.0155
      8 C           2.1599    0.8173    0.9236 C.3     1  UNL1       -0.0371
      9 C           2.6782    2.0175    1.6851 C.3     1  UNL1       -0.0494
     10 C           1.4913    2.7824    2.3892 C.3     1  UNL1       -0.0238
     11 C           0.3498    3.4312    1.5114 C.3     1  UNL1        0.1229
     12 C           0.9639    4.6823    0.4737 C.2     1  UNL1        0.3284
     13 O           1.5353    5.6297    1.0373 O.2     1  UNL1       -0.2487
     14 O           0.7740    4.7607   -0.9494 O.3     1  UNL1       -0.4552
     15 C           0.4363    3.6814   -2.0047 C.3     1  UNL1        0.1318
     16 C          -0.1377    2.5064   -1.3571 C.3     1  UNL1       -0.0073
     17 C          -0.9843    0.9091   -1.4776 C.3     1  UNL1       -0.0239
     18 C          -1.1970    0.2697   -2.8163 C.ar    1  UNL1       -0.0435
     19 C          -0.3347   -0.5990   -3.5083 C.ar    1  UNL1       -0.0549
     20 C          -0.2399   -0.3897   -4.8742 C.ar    1  UNL1       -0.0160
     21 C          -1.1697    0.4415   -5.5260 C.ar    1  UNL1        0.1615
     22 O          -0.9939    0.5216   -6.8823 O.3     1  UNL1       -0.4915
     23 C          -2.1117    1.1032   -7.5342 C.3     1  UNL1        0.0790
     24 C          -2.0815    1.2160   -4.7967 C.ar    1  UNL1        0.1617
     25 O          -2.8480    2.1881   -5.3650 O.3     1  UNL1       -0.4914
     26 C          -3.7942    2.8679   -4.5480 C.3     1  UNL1        0.0790
     27 C          -2.0988    1.0741   -3.4572 C.ar    1  UNL1       -0.0131
     28 C           0.9251    3.6496   -3.3848 C.ar    1  UNL1        0.0344
     29 C           0.5638    4.8170   -4.0320 C.ar    1  UNL1       -0.0516
     30 C           0.3667    4.7385   -5.3812 C.ar    1  UNL1       -0.0612
     31 C           0.6005    3.5532   -6.0643 C.ar    1  UNL1       -0.0583
     32 C           0.9763    2.4236   -5.4123 C.ar    1  UNL1       -0.0195
     33 C           1.1699    2.4549   -4.0808 C.ar    1  UNL1        0.1279
     34 O           1.6614    1.2294   -3.7187 O.3     1  UNL1       -0.4824
     35 C           1.6612    1.0375   -2.3646 C.3     1  UNL1        0.1652
     36 C           2.7159    2.0903   -1.7289 C.2     1  UNL1        0.2507
     37 O           2.7905    3.1742   -1.1707 O.2     1  UNL1       -0.2721
     38 N           3.7387    1.3373   -1.5526 N.am    1  UNL1       -0.3125
     39 C           3.8122    0.1766   -2.3291 C.3     1  UNL1        0.0117
     40 C           4.3274    0.7116   -3.6372 C.3     1  UNL1       -0.0374
     41 C           5.5985    1.3656   -3.2265 C.3     1  UNL1       -0.0515
     42 C           6.1789    0.1847   -2.4235 C.3     1  UNL1       -0.0499
     43 C           6.6258   -0.9676   -3.2044 C.3     1  UNL1       -0.0186
     44 C           7.5072   -0.2993   -4.2028 C.3     1  UNL1        0.0896
     45 O           8.6387    0.2847   -3.4643 O.3     1  UNL1       -0.4912
     46 C           8.8230    1.2461   -2.3300 C.ar    1  UNL1        0.1333
     47 C           9.7759    2.2253   -3.3172 C.ar    1  UNL1       -0.0191
     48 C          10.3552    3.2713   -2.8455 C.ar    1  UNL1       -0.0575
     49 C           9.3891    3.3388   -2.0443 C.ar    1  UNL1       -0.0487
     50 C           7.8391    2.4870   -1.4739 C.ar    1  UNL1        0.0530
     51 C           8.0476    1.3963   -0.8582 C.ar    1  UNL1        0.0910
     52 C           7.3297    2.2376    0.7830 C.2     1  UNL1        0.2580
     53 O           6.7274    1.8642    1.8174 O.2     1  UNL1       -0.2694
     54 N           6.7232    3.4620    0.5225 N.am    1  UNL1       -0.2219
     55 C           7.4010    5.0022    0.8127 C.3     1  UNL1        0.1109
     56 C           6.8856    5.9419   -0.3722 C.3     1  UNL1       -0.0170
     57 C           6.4222    5.2401   -1.6017 C.3     1  UNL1        0.0265
     58 C           7.7283    4.7864   -1.8935 C.2     1  UNL1        0.2193
     59 O           7.9833    4.6873   -3.0971 O.2     1  UNL1       -0.2754
     60 N           8.5353    4.2289   -0.4167 N.am    1  UNL1       -0.2548
     61 C           8.7522    4.5989    0.7633 C.2     1  UNL1        0.2402
     62 O          10.0055    4.5942    1.1168 O.2     1  UNL1       -0.2733
     63 C           6.4740    2.7639   -0.5645 C.2     1  UNL1        0.2546
     64 O           5.5997    1.8830   -0.4386 O.2     1  UNL1       -0.2695
     65 C          -4.1093    2.4787    0.1880 C.ar    1  UNL1       -0.0284
     66 C          -5.1714    3.1658   -0.4111 C.ar    1  UNL1       -0.0122
     67 C          -6.4514    2.6667   -0.3643 C.ar    1  UNL1        0.1654
     68 O          -7.3937    3.6239   -0.6466 O.3     1  UNL1       -0.4913
     69 C          -8.7226    3.2171   -0.3726 C.3     1  UNL1        0.0790
     70 C          -6.6604    1.3449    0.0365 C.ar    1  UNL1        0.2035
     71 O          -7.9218    0.8666   -0.1003 O.3     1  UNL1       -0.4885
     72 C          -8.1668   -0.4643    0.2718 C.3     1  UNL1        0.0791
     73 C          -5.6070    0.6012    0.5345 C.ar    1  UNL1        0.1654
     74 O          -5.7987   -0.6427    1.0535 O.3     1  UNL1       -0.4913
     75 C          -4.6918   -1.3684    1.5683 C.3     1  UNL1        0.0790
     76 C          -4.3825    1.1937    0.5990 C.ar    1  UNL1       -0.0122
     77 H          -1.1543    4.2569   -0.8147 H       1  UNL1        0.0230
     78 H          -1.8593    4.6754   -2.3644 H       1  UNL1        0.0230
     79 H          -2.1524    3.0433   -1.7165 H       1  UNL1        0.0230
     80 H          -2.3714    5.3394    0.0167 H       1  UNL1        0.0273
     81 H          -3.5687    4.6074   -1.0854 H       1  UNL1        0.0273
     82 H          -2.8154    3.5211    1.5660 H       1  UNL1        0.0443
     83 H           1.4531    2.2127    0.0053 H       1  UNL1        0.0465
     84 H           0.6821    0.7589   -0.3382 H       1  UNL1        0.0465
     85 H           2.8668    0.5067    0.1414 H       1  UNL1        0.0280
     86 H           1.7587   -0.1394    1.2254 H       1  UNL1        0.0280
     87 H           3.4160    1.5632    2.3175 H       1  UNL1        0.0266
     88 H           3.2260    2.7767    1.0944 H       1  UNL1        0.0266
     89 H           1.0083    1.9457    2.9288 H       1  UNL1        0.0288
     90 H           1.8883    3.5297    3.0384 H       1  UNL1        0.0288
     91 H          -0.4938    3.8805    2.0738 H       1  UNL1        0.0616
     92 H          -0.5004    3.6715   -2.4612 H       1  UNL1        0.0786
     93 H           0.8427    2.3436   -1.4992 H       1  UNL1        0.0307
     94 H          -0.0834    2.9848   -0.4440 H       1  UNL1        0.0307
     95 H          -0.6715    0.0554   -0.8138 H       1  UNL1        0.0314
     96 H          -1.9868    1.1412   -1.1724 H       1  UNL1        0.0314
     97 H           0.5258   -1.0954   -3.0507 H       1  UNL1        0.0621
     98 H           0.7392   -0.5654   -5.3496 H       1  UNL1        0.0655
     99 H          -3.0531    0.6769   -7.1593 H       1  UNL1        0.0660
    100 H          -2.0838    2.1948   -7.4321 H       1  UNL1        0.0660
    101 H          -2.0416    0.8756   -8.5913 H       1  UNL1        0.0660
    102 H          -4.3697    2.1809   -3.9149 H       1  UNL1        0.0660
    103 H          -3.2900    3.6304   -3.9457 H       1  UNL1        0.0660
    104 H          -4.4964    3.3643   -5.2144 H       1  UNL1        0.0660
    105 H          -2.6905    1.7384   -2.8551 H       1  UNL1        0.0658
    106 H           0.3900    5.7071   -3.4261 H       1  UNL1        0.0623
    107 H           0.0617    5.6153   -5.9144 H       1  UNL1        0.0618
    108 H           0.5803    3.4572   -7.1314 H       1  UNL1        0.0619
    109 H           1.1125    1.4900   -5.9327 H       1  UNL1        0.0654
    110 H           0.6454    1.1145   -2.3874 H       1  UNL1        0.0795
    111 H           1.5320    0.0364   -1.7905 H       1  UNL1        0.0795
    112 H           4.4113    1.8278   -0.9662 H       1  UNL1        0.1488
    113 H           4.2018   -0.5350   -1.6195 H       1  UNL1        0.0462
    114 H           2.9482   -0.4074   -2.5785 H       1  UNL1        0.0462
    115 H           4.4210   -0.1321   -4.3050 H       1  UNL1        0.0280
    116 H           3.7021    1.4637   -4.1245 H       1  UNL1        0.0280
    117 H           6.1336    1.7924   -4.0685 H       1  UNL1        0.0266
    118 H           5.4336    2.2902   -2.6537 H       1  UNL1        0.0266
    119 H           7.0891    0.3548   -2.0344 H       1  UNL1        0.0266
    120 H           5.7880   -0.0690   -1.4401 H       1  UNL1        0.0266
    121 H           7.2582   -1.5705   -2.5451 H       1  UNL1        0.0298
    122 H           5.7644   -1.5288   -3.5369 H       1  UNL1        0.0298
    123 H           7.8669   -1.0799   -4.8761 H       1  UNL1        0.0696
    124 H           6.9833    0.3820   -4.9036 H       1  UNL1        0.0696
    125 H           9.6619    2.2781   -4.4092 H       1  UNL1        0.0654
    126 H          10.7806    4.2619   -3.1205 H       1  UNL1        0.0619
    127 H           9.6686    4.4650   -1.7167 H       1  UNL1        0.0625
    128 H           7.4031    5.5379    1.7511 H       1  UNL1        0.0602
    129 H           5.9826    6.3964   -0.0556 H       1  UNL1        0.0293
    130 H           7.6846    6.6449   -0.6993 H       1  UNL1        0.0293
    131 H           5.7405    4.3863   -1.6032 H       1  UNL1        0.0359
    132 H           6.2121    5.7766   -2.5357 H       1  UNL1        0.0359
    133 H           9.1394    3.3312   -0.2950 H       1  UNL1        0.1575
    134 H          -5.1261    4.1467   -0.8697 H       1  UNL1        0.0658
    135 H          -9.0056    2.4505   -1.0983 H       1  UNL1        0.0660
    136 H          -8.8415    2.8809    0.6683 H       1  UNL1        0.0660
    137 H          -9.3940    4.0560   -0.5297 H       1  UNL1        0.0660
    138 H          -7.5713   -1.1446   -0.3460 H       1  UNL1        0.0660
    139 H          -8.0013   -0.5894    1.3464 H       1  UNL1        0.0660
    140 H          -9.2170   -0.6548    0.0787 H       1  UNL1        0.0660
    141 H          -3.9703   -1.5829    0.7729 H       1  UNL1        0.0660
    142 H          -4.2222   -0.8453    2.4105 H       1  UNL1        0.0660
    143 H          -5.0840   -2.3125    1.9448 H       1  UNL1        0.0660
    144 H          -3.6558    0.5804    1.0628 H       1  UNL1        0.0658
@<TRIPOS>BOND
     1     1     2    1
     2     4     5    2
     3     4     6   am
     4     6     7    1
     5     7     8    1
     6     8     9    1
     7     9    10    1
     8    10    11    1
     9     6    11    1
    10    12    13    2
    11    12    14    1
    12    16    17    1
    13    17    18    1
    14    18    19   ar
    15    19    20   ar
    16    20    21   ar
    17    21    22    1
    18    22    23    1
    19    21    24   ar
    20    24    25    1
    21    25    26    1
    22    24    27   ar
    23    18    27   ar
    24    15    28    1
    25    28    29   ar
    26    29    30   ar
    27    30    31   ar
    28    31    32   ar
    29    32    33   ar
    30    28    33   ar
    31    33    34    1
    32    34    35    1
    33    35    36    1
    34    36    37    2
    35    36    38   am
    36    38    39    1
    37    39    40    1
    38    40    41    1
    39    41    42    1
    40    42    43    1
    41    43    44    1
    42    44    45    1
    43    45    46    1
    44    46    47   ar
    45    47    48   ar
    46    48    49   ar
    47    49    50   ar
    48    50    51   ar
    49    46    51   ar
    50    51    52    1
    51    52    53    2
    52    52    54   am
    53    54    55    1
    54    55    56    1
    55    56    57    1
    56    57    58    1
    57    58    59    2
    58    58    60   am
    59    60    61   am
    60    55    61    1
    61    61    62    2
    62    54    63   am
    63    50    63    1
    64    63    64    2
    65     3    65    1
    66    65    66   ar
    67    66    67   ar
    68    67    68    1
    69    68    69    1
    70    67    70   ar
    71    70    71    1
    72    71    72    1
    73    70    73   ar
    74    73    74    1
    75    74    75    1
    76    73    76   ar
    77    65    76   ar
    78     1    77    1
    79     1    78    1
    80     1    79    1
    81     2    80    1
    82     2    81    1
    83     3    82    1
    84     7    83    1
    85     7    84    1
    86     8    85    1
    87     8    86    1
    88     9    87    1
    89     9    88    1
    90    10    89    1
    91    10    90    1
    92    15    92    1
    93    16    93    1
    94    16    94    1
    95    17    95    1
    96    17    96    1
    97    19    97    1
    98    20    98    1
    99    23    99    1
   100    23   100    1
   101    23   101    1
   102    26   102    1
   103    26   103    1
   104    26   104    1
   105    27   105    1
   106    29   106    1
   107    30   107    1
   108    31   108    1
   109    32   109    1
   110    35   110    1
   111    35   111    1
   112    38   112    1
   113    39   113    1
   114    39   114    1
   115    40   115    1
   116    40   116    1
   117    41   117    1
   118    41   118    1
   119    42   119    1
   120    42   120    1
   121    43   121    1
   122    43   122    1
   123    44   123    1
   124    44   124    1
   125    47   125    1
   126    48   126    1
   127    49   127    1
   128    55   128    1
   129    56   129    1
   130    56   130    1
   131    57   131    1
   132    57   132    1
   133    60   133    1
   134    66   134    1
   135    69   135    1
   136    69   136    1
   137    69   137    1
   138    72   138    1
   139    72   139    1
   140    72   140    1
   141    75   141    1
   142    75   142    1
   143    75   143    1
   144    76   144    1
   145     3     4    1
   146     3     2    1
   147    11    91    1
   148    11    12    1
   149    15    16    1
   150    15    14    1
