@<TRIPOS>MOLECULE
*****
 135 141 0 0 0
SMALL
GASTEIGER

@<TRIPOS>ATOM
      1 C           1.0477    0.1248    0.0465 C.3     1  UNL1       -0.0613
      2 C           0.5951   -0.0804   -1.3929 C.3     1  UNL1       -0.0305
      3 C           1.2116   -1.3249   -1.9542 C.ar    1  UNL1       -0.0459
      4 C           0.4789   -2.4572   -1.9062 C.ar    1  UNL1       -0.0371
      5 C           1.0665   -3.7417   -2.0517 C.ar    1  UNL1        0.0366
      6 C           2.2753   -3.8566   -2.6304 C.ar    1  UNL1       -0.0403
      7 C           3.0010   -2.7241   -2.8164 C.ar    1  UNL1       -0.0597
      8 C           2.4883   -1.4754   -2.4472 C.ar    1  UNL1       -0.0585
      9 N           0.4165   -4.9131   -1.5897 N.am    1  UNL1       -0.2702
     10 C          -1.0660   -4.1776   -1.1699 C.3     1  UNL1        0.0170
     11 C          -2.9564   -4.4880   -1.2920 C.3     1  UNL1       -0.0489
     12 C           1.3393   -6.2916   -1.3518 C.2     1  UNL1        0.2396
     13 O           2.3176   -6.5175   -2.1036 O.2     1  UNL1       -0.2733
     14 C           1.0227   -7.8018   -0.4483 C.3     1  UNL1        0.1007
     15 N           0.6168   -8.1450    0.9386 N.ar    1  UNL1       -0.3273
     16 C           1.4103   -7.9712    2.0125 C.ar    1  UNL1        0.0501
     17 C           1.3939   -8.4424    3.2727 C.ar    1  UNL1       -0.0376
     18 C           2.4172   -7.8295    3.9687 C.ar    1  UNL1       -0.0598
     19 C           3.3539   -6.9350    3.3392 C.ar    1  UNL1       -0.0611
     20 C           3.1086   -6.3356    2.0928 C.ar    1  UNL1       -0.0526
     21 C           1.8104   -6.6873    1.7937 C.ar    1  UNL1        0.0006
     22 C           0.5296   -6.2973    1.2657 C.ar    1  UNL1       -0.0239
     23 C          -0.5581   -7.5694    1.3055 C.ar    1  UNL1        0.1058
     24 C          -2.2460   -8.2166    0.9160 C.2     1  UNL1        0.2608
     25 O          -2.4937   -8.9817   -0.0361 O.2     1  UNL1       -0.2686
     26 N          -3.6359   -7.7874    1.3018 N.am    1  UNL1       -0.3073
     27 C          -4.2658   -7.6571    2.6623 C.3     1  UNL1        0.0235
     28 C          -3.3514   -8.5979    3.4767 C.3     1  UNL1       -0.0338
     29 C          -3.1266   -8.1478    4.8967 C.3     1  UNL1       -0.0403
     30 C          -2.9200   -6.6201    5.1770 C.3     1  UNL1        0.0357
     31 C          -4.2003   -5.8403    4.6905 C.3     1  UNL1       -0.0403
     32 C          -4.6316   -6.1258    3.2480 C.3     1  UNL1       -0.0338
     33 C          -1.4541   -5.9721    4.8046 C.2     1  UNL1        0.2161
     34 O          -0.5673   -5.7906    5.6333 O.2     1  UNL1       -0.2755
     35 N          -1.1743   -5.5953    3.5179 N.am    1  UNL1       -0.3151
     36 C          -2.0543   -6.1167    2.6071 C.3     1  UNL1        0.0116
     37 C          -2.8362   -5.3988    1.5629 C.3     1  UNL1       -0.0374
     38 C          -1.8165   -5.1200    0.6884 C.3     1  UNL1       -0.0516
     39 C          -1.5956   -6.3084   -0.6853 C.3     1  UNL1       -0.0530
     40 C          -2.2551   -6.7607   -2.0433 C.3     1  UNL1       -0.0526
     41 C          -2.0450   -5.8886   -3.2626 C.3     1  UNL1       -0.0448
     42 C          -0.7325   -5.8275   -3.9471 C.3     1  UNL1        0.0240
     43 C          -0.2175   -7.0522   -4.6083 C.2     1  UNL1        0.2130
     44 O           0.1125   -6.9307   -5.7876 O.2     1  UNL1       -0.2758
     45 N          -0.0614   -8.2814   -4.0109 N.am    1  UNL1       -0.3153
     46 C           0.0655   -8.5661   -2.6375 C.3     1  UNL1        0.0116
     47 C          -0.7558   -9.6482   -1.8300 C.3     1  UNL1       -0.0360
     48 C          -0.0731  -10.9721   -1.8053 C.3     1  UNL1       -0.0361
     49 C           1.3505  -11.0874   -1.1074 C.3     1  UNL1        0.0092
     50 N           1.5345  -10.9580    0.3664 N.pl3   1  UNL1       -0.3432
     51 C           2.0868  -11.8816    1.3479 C.ar    1  UNL1        0.0401
     52 C           0.9388  -12.1057    2.2736 C.ar    1  UNL1       -0.0401
     53 C           1.1167  -12.8900    3.3293 C.ar    1  UNL1       -0.0593
     54 C           2.1329  -13.7273    3.0737 C.ar    1  UNL1       -0.0488
     55 C           2.8832  -13.6823    1.8300 C.ar    1  UNL1        0.0512
     56 C           3.4451  -12.5181    1.3806 C.ar    1  UNL1        0.0702
     57 C           4.9572  -13.4406    1.8913 C.2     1  UNL1        0.2563
     58 O           6.1876  -13.3422    1.4962 O.2     1  UNL1       -0.2694
     59 N           4.7231  -14.7524    2.2273 N.am    1  UNL1       -0.2220
     60 C           3.8066  -14.6463    1.2246 C.2     1  UNL1        0.2546
     61 O           4.0543  -14.5646    0.0500 O.2     1  UNL1       -0.2695
     62 C           4.3972  -15.2563    3.6065 C.3     1  UNL1        0.1109
     63 C           4.5859  -14.2212    4.7534 C.3     1  UNL1       -0.0170
     64 C           5.9775  -14.3551    5.3221 C.3     1  UNL1        0.0265
     65 C           6.1840  -15.7463    5.8761 C.2     1  UNL1        0.2193
     66 O           6.8694  -15.9715    6.8506 O.2     1  UNL1       -0.2754
     67 N           5.5916  -16.7630    5.1640 N.am    1  UNL1       -0.2548
     68 C           4.8071  -16.6687    4.0405 C.2     1  UNL1        0.2402
     69 O           4.3702  -17.6661    3.4980 O.2     1  UNL1       -0.2733
     70 H           0.6747   -0.6621    0.7178 H       1  UNL1        0.0233
     71 H           0.6797    1.0836    0.4195 H       1  UNL1        0.0233
     72 H           2.1393    0.1154    0.1095 H       1  UNL1        0.0233
     73 H          -0.5091   -0.1222   -1.3956 H       1  UNL1        0.0311
     74 H           0.8773    0.7452   -2.0411 H       1  UNL1        0.0311
     75 H          -0.5553   -2.2024   -1.6863 H       1  UNL1        0.0639
     76 H           2.6310   -4.7996   -2.9935 H       1  UNL1        0.0636
     77 H           3.9796   -2.8790   -3.2354 H       1  UNL1        0.0618
     78 H           3.0936   -0.6029   -2.5947 H       1  UNL1        0.0620
     79 H          -0.5052   -4.3869   -0.2657 H       1  UNL1        0.0466
     80 H          -1.0979   -3.2326   -0.6029 H       1  UNL1        0.0466
     81 H          -3.3259   -5.4782   -0.9848 H       1  UNL1        0.0245
     82 H          -3.6441   -4.0565   -0.5486 H       1  UNL1        0.0245
     83 H          -3.4723   -4.3822   -2.2426 H       1  UNL1        0.0245
     84 H           0.0404   -8.0407   -0.7131 H       1  UNL1        0.0588
     85 H           1.6115   -8.6660   -0.6870 H       1  UNL1        0.0588
     86 H           0.6052   -9.1083    3.5712 H       1  UNL1        0.0638
     87 H           2.4637   -8.0395    5.0227 H       1  UNL1        0.0618
     88 H           4.2321   -6.6348    3.8985 H       1  UNL1        0.0618
     89 H           3.7297   -5.5280    1.6963 H       1  UNL1        0.0624
     90 H           0.6877   -5.4311    0.6231 H       1  UNL1        0.0646
     91 H          -4.3306   -7.9655    0.5642 H       1  UNL1        0.1493
     92 H          -5.2788   -8.0761    2.6228 H       1  UNL1        0.0498
     93 H          -3.6292   -9.6379    3.2562 H       1  UNL1        0.0283
     94 H          -2.3179   -8.6954    3.1130 H       1  UNL1        0.0283
     95 H          -2.2522   -8.6937    5.2581 H       1  UNL1        0.0273
     96 H          -4.0255   -8.4753    5.4144 H       1  UNL1        0.0273
     97 H          -2.9068   -6.4956    6.2535 H       1  UNL1        0.0394
     98 H          -3.9546   -4.7623    4.7990 H       1  UNL1        0.0273
     99 H          -5.0835   -6.0706    5.2613 H       1  UNL1        0.0273
    100 H          -3.9761   -5.3111    3.0396 H       1  UNL1        0.0283
    101 H          -5.3718   -5.5757    2.6378 H       1  UNL1        0.0283
    102 H          -0.1852   -5.6340    3.2661 H       1  UNL1        0.1487
    103 H          -1.7862   -7.1150    2.5183 H       1  UNL1        0.0462
    104 H          -2.7385   -6.5165    3.2211 H       1  UNL1        0.0462
    105 H          -3.6050   -5.8452    0.9364 H       1  UNL1        0.0280
    106 H          -3.2519   -4.4274    1.8493 H       1  UNL1        0.0280
    107 H          -2.1795   -4.0967    0.4900 H       1  UNL1        0.0266
    108 H          -0.9622   -4.7266    1.2928 H       1  UNL1        0.0266
    109 H          -0.5786   -6.2904   -0.8333 H       1  UNL1        0.0265
    110 H          -1.5332   -7.2661   -0.3931 H       1  UNL1        0.0265
    111 H          -1.9438   -7.7293   -2.3851 H       1  UNL1        0.0265
    112 H          -3.2731   -7.0979   -1.8288 H       1  UNL1        0.0265
    113 H          -2.8750   -6.1150   -3.9183 H       1  UNL1        0.0270
    114 H          -2.0901   -4.8248   -3.0883 H       1  UNL1        0.0270
    115 H          -0.8274   -4.9618   -4.6241 H       1  UNL1        0.0358
    116 H           0.0838   -5.4534   -3.3876 H       1  UNL1        0.0358
    117 H           0.6144   -8.8169   -4.5233 H       1  UNL1        0.1487
    118 H           1.1359   -8.7063   -2.4943 H       1  UNL1        0.0462
    119 H          -0.1604   -7.5872   -2.2777 H       1  UNL1        0.0462
    120 H          -0.8105   -9.5574   -0.7391 H       1  UNL1        0.0281
    121 H          -1.8026   -9.6835   -2.1633 H       1  UNL1        0.0281
    122 H          -0.8074  -11.6786   -1.4028 H       1  UNL1        0.0281
    123 H           0.0254  -11.1004   -2.8832 H       1  UNL1        0.0281
    124 H           1.7741  -12.0086   -1.4689 H       1  UNL1        0.0461
    125 H           1.9693  -10.2905   -1.5142 H       1  UNL1        0.0461
    126 H           0.8018  -10.4079    0.8191 H       1  UNL1        0.1461
    127 H          -0.0543  -11.6718    2.1442 H       1  UNL1        0.0636
    128 H           0.4828  -12.9862    4.1985 H       1  UNL1        0.0618
    129 H           2.2372  -14.3824    3.9191 H       1  UNL1        0.0625
    130 H           3.3488  -15.5698    3.5493 H       1  UNL1        0.0602
    131 H           3.8550  -14.3676    5.5690 H       1  UNL1        0.0293
    132 H           4.4409  -13.1891    4.4157 H       1  UNL1        0.0293
    133 H           6.1208  -13.6285    6.1287 H       1  UNL1        0.0359
    134 H           6.7164  -14.1676    4.5408 H       1  UNL1        0.0359
    135 H           5.7753  -17.7019    5.4890 H       1  UNL1        0.1575
@<TRIPOS>BOND
     1     1     2    1
     2     2     3    1
     3     3     4   ar
     4     4     5   ar
     5     5     6   ar
     6     6     7   ar
     7     7     8   ar
     8     3     8   ar
     9     5     9    1
    10     9    10    1
    11    10    11    1
    12     9    12   am
    13    12    13    2
    14    12    14    1
    15    14    15    1
    16    15    16   ar
    17    16    17   ar
    18    17    18   ar
    19    18    19   ar
    20    19    20   ar
    21    20    21   ar
    22    16    21   ar
    23    21    22   ar
    24    22    23   ar
    25    15    23   ar
    26    23    24    1
    27    24    25    2
    28    24    26   am
    29    26    27    1
    30    27    28    1
    31    28    29    1
    32    29    30    1
    33    30    31    1
    34    31    32    1
    35    27    32    1
    36    30    33    1
    37    33    34    2
    38    33    35   am
    39    35    36    1
    40    36    37    1
    41    37    38    1
    42    38    39    1
    43    39    40    1
    44    40    41    1
    45    41    42    1
    46    42    43    1
    47    43    44    2
    48    43    45   am
    49    45    46    1
    50    46    47    1
    51    47    48    1
    52    48    49    1
    53    49    50    1
    54    50    51    1
    55    51    52   ar
    56    52    53   ar
    57    53    54   ar
    58    54    55   ar
    59    55    56   ar
    60    51    56   ar
    61    56    57    1
    62    57    58    2
    63    57    59   am
    64    59    60   am
    65    55    60    1
    66    60    61    2
    67    59    62    1
    68    62    63    1
    69    63    64    1
    70    64    65    1
    71    65    66    2
    72    65    67   am
    73    67    68   am
    74    62    68    1
    75    68    69    2
    76     1    70    1
    77     1    71    1
    78     1    72    1
    79     2    73    1
    80     2    74    1
    81     4    75    1
    82     6    76    1
    83     7    77    1
    84     8    78    1
    85    10    79    1
    86    10    80    1
    87    11    81    1
    88    11    82    1
    89    11    83    1
    90    14    84    1
    91    14    85    1
    92    17    86    1
    93    18    87    1
    94    19    88    1
    95    20    89    1
    96    22    90    1
    97    26    91    1
    98    27    92    1
    99    28    93    1
   100    28    94    1
   101    29    95    1
   102    29    96    1
   103    30    97    1
   104    31    98    1
   105    31    99    1
   106    32   100    1
   107    32   101    1
   108    35   102    1
   109    36   103    1
   110    36   104    1
   111    37   105    1
   112    37   106    1
   113    38   107    1
   114    38   108    1
   115    39   109    1
   116    39   110    1
   117    40   111    1
   118    40   112    1
   119    41   113    1
   120    41   114    1
   121    42   115    1
   122    42   116    1
   123    45   117    1
   124    46   118    1
   125    46   119    1
   126    47   120    1
   127    47   121    1
   128    48   122    1
   129    48   123    1
   130    49   124    1
   131    49   125    1
   132    50   126    1
   133    52   127    1
   134    53   128    1
   135    54   129    1
   136    62   130    1
   137    63   131    1
   138    63   132    1
   139    64   133    1
   140    64   134    1
   141    67   135    1
