@<TRIPOS>MOLECULE
*****
 110 114 0 0 0
SMALL
GASTEIGER

@<TRIPOS>ATOM
      1 C          -3.8089   -7.1136   -3.4223 C.3     1  UNL1       -0.0212
      2 C          -4.9024   -6.1266   -3.3003 C.ar    1  UNL1        0.0531
      3 C          -5.4038   -5.7489   -2.1152 C.ar    1  UNL1        0.0418
      4 S          -6.5814   -4.5027   -2.2313 S.2     1  UNL1       -0.0752
      5 C          -6.4296   -4.6966   -3.9261 C.ar    1  UNL1        0.0655
      6 N          -5.5244   -5.5540   -4.3597 N.ar    1  UNL1       -0.2520
      7 C          -4.8156   -6.3335   -0.9702 C.ar    1  UNL1       -0.0061
      8 C          -5.9475   -6.4692    0.0621 C.ar    1  UNL1       -0.0113
      9 C          -5.3810   -6.2105    1.3822 C.ar    1  UNL1        0.1259
     10 C          -3.4888   -6.2857    2.1011 C.ar    1  UNL1        0.0113
     11 C          -2.1749   -6.4301    0.7777 C.ar    1  UNL1       -0.0530
     12 C          -2.9734   -6.3858   -0.8388 C.ar    1  UNL1       -0.0529
     13 C          -2.8830   -6.5784    3.7647 C.3     1  UNL1        0.0403
     14 N          -4.1998   -6.2857    4.8502 N.am    1  UNL1       -0.3095
     15 C          -4.8179   -7.0409    6.0861 C.2     1  UNL1        0.2339
     16 O          -5.6698   -6.4623    6.7470 O.2     1  UNL1       -0.2738
     17 C          -4.6458   -8.9667    5.7516 C.3     1  UNL1        0.1047
     18 C          -3.4255   -9.6788    6.1384 C.3     1  UNL1        0.0018
     19 C          -2.8217  -10.6654    5.0998 C.3     1  UNL1        0.0731
     20 C          -2.6735   -9.7029    3.9616 C.3     1  UNL1        0.0416
     21 N          -4.0998   -9.1462    3.8115 N.am    1  UNL1       -0.2858
     22 C          -4.8211   -7.7123    2.5949 C.2     1  UNL1        0.2371
     23 O          -5.0633   -6.4026    3.1116 O.2     1  UNL1       -0.2735
     24 C          -3.7707   -7.3637    0.7087 C.3     1  UNL1        0.1053
     25 C          -1.9530   -8.3956    0.6407 C.3     1  UNL1       -0.0195
     26 C          -1.1716   -8.6098    2.0453 C.3     1  UNL1       -0.0605
     27 C          -1.8738   -9.5688   -0.2488 C.3     1  UNL1       -0.0605
     28 N          -3.5617   -5.2660    0.6483 N.am    1  UNL1       -0.2814
     29 C          -2.1968   -4.4732    1.4916 C.3     1  UNL1        0.0415
     30 C          -2.6144   -4.0332    2.7735 C.ar    1  UNL1       -0.0180
     31 C          -3.0824   -3.0144    3.4259 C.ar    1  UNL1       -0.0563
     32 C          -3.7843   -3.1790    4.8776 C.ar    1  UNL1       -0.0614
     33 C          -3.9351   -4.2261    5.6120 C.ar    1  UNL1       -0.0610
     34 C          -3.1755   -4.6817    4.6669 C.ar    1  UNL1       -0.0493
     35 C          -3.7840   -4.3467    2.9855 C.ar    1  UNL1        0.0416
     36 C          -4.3120   -4.2482    1.0659 C.2     1  UNL1        0.2478
     37 O          -4.1375   -3.9972   -0.1953 O.2     1  UNL1       -0.2699
     38 O          -3.6537  -12.0545    5.1373 O.3     1  UNL1       -0.3902
     39 O          -6.8111   -6.7079    2.4013 O.3     1  UNL1       -0.4893
     40 C          -6.5021   -6.9155    4.0688 C.3     1  UNL1        0.1128
     41 C          -4.9428   -7.8493    4.2323 C.3     1  UNL1        0.0818
     42 O          -3.3882   -8.0914    2.9077 O.3     1  UNL1       -0.3742
     43 C          -4.0731   -9.1170    1.6566 C.3     1  UNL1        0.0711
     44 C          -5.4381   -9.3184    1.3377 C.3     1  UNL1        0.0711
     45 O          -6.4066   -8.9842    2.2935 O.3     1  UNL1       -0.3752
     46 C          -6.3051  -10.0189    3.3742 C.3     1  UNL1        0.0711
     47 C          -4.7506  -10.9948    3.4595 C.3     1  UNL1        0.0710
     48 O          -3.4598  -11.3795    2.7863 O.3     1  UNL1       -0.3775
     49 C          -3.3950  -11.3813    1.4279 C.3     1  UNL1        0.0478
     50 C          -4.5879  -12.1028    1.0124 C.3     1  UNL1       -0.0295
     51 C          -5.9119  -12.2348    1.8383 C.3     1  UNL1       -0.0509
     52 C          -7.0804  -11.3359    1.6758 C.3     1  UNL1       -0.0519
     53 C          -7.3616  -10.7488    0.3587 C.3     1  UNL1       -0.0396
     54 C          -8.0263  -11.9630   -0.0142 C.3     1  UNL1        0.0226
     55 CL         -9.4189  -12.2358    1.0921 Cl      1  UNL1       -0.1254
     56 H          -4.1817   -8.0102   -3.8861 H       1  UNL1        0.0293
     57 H          -2.9664   -6.6714   -3.9372 H       1  UNL1        0.0293
     58 H          -3.3970   -7.5094   -2.4921 H       1  UNL1        0.0293
     59 H          -7.0479   -4.1613   -4.6239 H       1  UNL1        0.0907
     60 H          -6.9487   -6.9574   -0.0917 H       1  UNL1        0.0660
     61 H          -1.1969   -6.0630    0.6551 H       1  UNL1        0.0622
     62 H          -2.4142   -5.5733   -1.2962 H       1  UNL1        0.0624
     63 H          -2.5124   -7.4885    4.2562 H       1  UNL1        0.0513
     64 H          -1.8605   -6.2740    3.6331 H       1  UNL1        0.0513
     65 H          -4.7126   -5.6705    4.1589 H       1  UNL1        0.1491
     66 H          -5.8264   -9.1156    5.7624 H       1  UNL1        0.0597
     67 H          -4.0070  -10.1952    6.8406 H       1  UNL1        0.0313
     68 H          -2.7425   -8.8407    6.3132 H       1  UNL1        0.0313
     69 H          -1.7875  -10.9765    5.1213 H       1  UNL1        0.0610
     70 H          -1.8147   -9.0505    4.1819 H       1  UNL1        0.0490
     71 H          -2.7028   -9.8499    2.9402 H       1  UNL1        0.0490
     72 H          -4.2259   -8.0039   -0.2472 H       1  UNL1        0.0599
     73 H          -1.1010   -7.8414    0.2630 H       1  UNL1        0.0318
     74 H          -1.4178   -9.6154    2.2415 H       1  UNL1        0.0233
     75 H          -0.2354   -8.9583    2.4356 H       1  UNL1        0.0233
     76 H          -1.4016   -7.8870    2.8021 H       1  UNL1        0.0233
     77 H          -2.2769   -9.1394   -1.1326 H       1  UNL1        0.0233
     78 H          -0.8878   -9.9246    0.0543 H       1  UNL1        0.0233
     79 H          -2.4547  -10.4698   -0.2899 H       1  UNL1        0.0233
     80 H          -1.2971   -5.0743    1.8926 H       1  UNL1        0.0514
     81 H          -2.0378   -3.7382    0.7714 H       1  UNL1        0.0514
     82 H          -3.3796   -2.2872    2.7366 H       1  UNL1        0.0621
     83 H          -3.7740   -2.3500    5.4652 H       1  UNL1        0.0618
     84 H          -4.4176   -4.6070    6.5143 H       1  UNL1        0.0618
     85 H          -2.7841   -5.7261    5.4839 H       1  UNL1        0.0625
     86 H          -4.6694  -12.0882    4.9954 H       1  UNL1        0.2098
     87 H          -6.2889   -5.9083    4.4602 H       1  UNL1        0.0720
     88 H          -7.1317   -7.4082    4.7889 H       1  UNL1        0.0720
     89 H          -3.7966   -7.8528    4.9845 H       1  UNL1        0.0594
     90 H          -5.4637   -8.8439    4.3398 H       1  UNL1        0.0594
     91 H          -4.8844   -8.4086    1.1214 H       1  UNL1        0.0583
     92 H          -3.1993   -8.6327    1.6116 H       1  UNL1        0.0583
     93 H          -5.5611   -9.3240    0.2183 H       1  UNL1        0.0583
     94 H          -5.1308  -10.1732    1.7637 H       1  UNL1        0.0583
     95 H          -6.6348   -9.0227    3.6769 H       1  UNL1        0.0583
     96 H          -6.7851  -10.1565    4.3667 H       1  UNL1        0.0583
     97 H          -4.7193  -10.7023    4.5331 H       1  UNL1        0.0583
     98 H          -4.6992  -12.0343    3.4293 H       1  UNL1        0.0583
     99 H          -3.8778  -10.6489    0.8305 H       1  UNL1        0.0560
    100 H          -2.7253  -10.5662    1.3001 H       1  UNL1        0.0560
    101 H          -4.8240  -11.7566    0.0023 H       1  UNL1        0.0287
    102 H          -3.9872  -12.9756    1.1097 H       1  UNL1        0.0287
    103 H          -6.2656  -13.1806    1.6200 H       1  UNL1        0.0266
    104 H          -5.9858  -12.4423    2.9001 H       1  UNL1        0.0266
    105 H          -7.7241  -11.1532    2.5633 H       1  UNL1        0.0266
    106 H          -6.7574  -10.4348    1.7266 H       1  UNL1        0.0266
    107 H          -7.8900   -9.7716    0.4403 H       1  UNL1        0.0277
    108 H          -6.4543  -10.5620   -0.2295 H       1  UNL1        0.0277
    109 H          -8.3008  -11.8053   -1.0176 H       1  UNL1        0.0429
    110 H          -7.2881  -12.7723    0.0846 H       1  UNL1        0.0429
@<TRIPOS>BOND
     1     1     2    1
     2     2     3   ar
     3     3     4   ar
     4     4     5   ar
     5     5     6   ar
     6     2     6   ar
     7     3     7    1
     8     7     8   ar
     9     8     9   ar
    10     9    10   ar
    11    10    11   ar
    12    11    12   ar
    13     7    12   ar
    14    10    13    1
    15    13    14    1
    16    14    15   am
    17    15    16    2
    18    17    18    1
    19    18    19    1
    20    19    20    1
    21    20    21    1
    22    17    21    1
    23    21    22   am
    24    22    23    2
    25    25    26    1
    26    25    27    1
    27    24    28    1
    28    28    29    1
    29    29    30    1
    30    30    31   ar
    31    31    32   ar
    32    32    33   ar
    33    33    34   ar
    34    34    35   ar
    35    30    35   ar
    36    35    36    1
    37    28    36   am
    38    36    37    2
    39    19    38    1
    40     9    39    1
    41    39    40    1
    42    40    41    1
    43    41    42    1
    44    42    43    1
    45    43    44    1
    46    44    45    1
    47    45    46    1
    48    46    47    1
    49    47    48    1
    50    48    49    1
    51    49    50    1
    52    50    51    1
    53    51    52    1
    54    52    53    1
    55    53    54    1
    56    54    55    1
    57     1    56    1
    58     1    57    1
    59     1    58    1
    60     5    59    1
    61     8    60    1
    62    11    61    1
    63    12    62    1
    64    13    63    1
    65    13    64    1
    66    14    65    1
    67    18    67    1
    68    18    68    1
    69    19    69    1
    70    20    70    1
    71    20    71    1
    72    24    72    1
    73    25    73    1
    74    26    74    1
    75    26    75    1
    76    26    76    1
    77    27    77    1
    78    27    78    1
    79    27    79    1
    80    29    80    1
    81    29    81    1
    82    31    82    1
    83    32    83    1
    84    33    84    1
    85    34    85    1
    86    38    86    1
    87    40    87    1
    88    40    88    1
    89    41    89    1
    90    41    90    1
    91    43    91    1
    92    43    92    1
    93    44    93    1
    94    44    94    1
    95    46    95    1
    96    46    96    1
    97    47    97    1
    98    47    98    1
    99    49    99    1
   100    49   100    1
   101    50   101    1
   102    50   102    1
   103    51   103    1
   104    51   104    1
   105    52   105    1
   106    52   106    1
   107    53   107    1
   108    53   108    1
   109    54   109    1
   110    54   110    1
   111    17    66    1
   112    17    15    1
   113    24    25    1
   114    24    22    1
