@<TRIPOS>MOLECULE
*****
 134 140 0 0 0
SMALL
GASTEIGER

@<TRIPOS>ATOM
      1 C          -4.4728  -16.5404    0.6752 C.3     1  UNL1       -0.0212
      2 C          -5.3234  -15.8225   -0.2699 C.ar    1  UNL1        0.0531
      3 C          -5.7856  -14.5682    0.0747 C.ar    1  UNL1        0.0417
      4 S          -6.8902  -14.1068   -1.2434 S.2     1  UNL1       -0.0752
      5 C          -6.6385  -15.6299   -2.0398 C.ar    1  UNL1        0.0655
      6 N          -5.8301  -16.4505   -1.4088 N.ar    1  UNL1       -0.2520
      7 C          -5.3137  -13.7284    1.4024 C.ar    1  UNL1       -0.0095
      8 C          -6.2071  -12.7170    1.9466 C.ar    1  UNL1       -0.0532
      9 C          -5.6651  -11.6547    2.8949 C.ar    1  UNL1       -0.0565
     10 C          -4.0860  -11.6069    3.2314 C.ar    1  UNL1       -0.0303
     11 C          -3.4429  -10.3038    3.7559 C.3     1  UNL1        0.0369
     12 N          -3.9811   -8.9800    3.4696 N.am    1  UNL1       -0.3097
     13 C          -4.7835   -8.0280    4.0068 C.2     1  UNL1        0.2339
     14 C          -4.9494   -6.6806    3.1133 C.3     1  UNL1        0.1047
     15 C          -5.7040   -5.5251    3.7794 C.3     1  UNL1        0.0018
     16 C          -6.3390   -4.8000    2.5914 C.3     1  UNL1        0.0731
     17 O          -5.4027   -3.9127    1.9632 O.3     1  UNL1       -0.3902
     18 C          -6.7179   -5.9352    1.6492 C.3     1  UNL1        0.0416
     19 N          -5.6652   -6.9148    1.8297 N.am    1  UNL1       -0.2858
     20 C          -5.4455   -7.8177    0.7998 C.2     1  UNL1        0.2371
     21 C          -4.1870   -8.6739    0.8640 C.3     1  UNL1        0.1045
     22 C          -2.7087   -7.9912    1.0438 C.3     1  UNL1       -0.0108
     23 C          -2.8954   -6.7549    0.2035 C.3     1  UNL1       -0.0579
     24 C          -2.0083   -7.5656    2.4161 C.3     1  UNL1       -0.0579
     25 C          -1.6118   -8.9007    0.5051 C.3     1  UNL1       -0.0579
     26 N          -4.1078   -9.6325   -0.1535 N.am    1  UNL1       -0.3016
     27 C          -4.0857  -10.8829    0.2856 C.2     1  UNL1        0.2394
     28 C          -4.0711  -12.1560   -0.2484 C.3     1  UNL1        0.1237
     29 O          -2.9189  -12.8907   -0.3116 O.3     1  UNL1       -0.3683
     30 C          -1.7217  -12.1860   -0.3092 C.3     1  UNL1        0.0716
     31 C          -1.6429  -11.2256   -1.5102 C.3     1  UNL1        0.0711
     32 O          -2.7586  -10.4708   -1.9562 O.3     1  UNL1       -0.3752
     33 C          -3.7192  -11.3259   -2.6507 C.3     1  UNL1        0.0711
     34 C          -3.5875  -12.9433   -2.5738 C.3     1  UNL1        0.0711
     35 O          -2.4812  -13.8213   -2.2464 O.3     1  UNL1       -0.3742
     36 C          -1.1935  -13.4862   -2.8573 C.3     1  UNL1        0.0819
     37 C          -1.1783  -12.4649   -4.2686 C.3     1  UNL1        0.1157
     38 O          -2.3498  -11.6450   -4.7481 O.3     1  UNL1       -0.4621
     39 C          -3.7042  -11.9525   -4.9571 C.2     1  UNL1        0.3128
     40 C          -4.2117  -13.6712   -4.7873 C.3     1  UNL1        0.0855
     41 C          -3.0934  -14.6946   -4.4128 C.3     1  UNL1       -0.0405
     42 C          -2.2916  -15.3818   -5.3936 C.3     1  UNL1       -0.0644
     43 C          -5.2398  -14.1405   -5.6775 C.3     1  UNL1        0.1241
     44 C          -5.7724  -13.0467   -6.4105 C.ar    1  UNL1        0.1638
     45 N          -5.7498  -11.7808   -6.1406 N.ar    1  UNL1       -0.1317
     46 N          -6.1461  -11.0768   -7.1680 N.ar    1  UNL1       -0.1342
     47 C          -6.6275  -11.9715   -7.9809 C.ar    1  UNL1        0.1353
     48 C          -7.2505  -11.5888   -9.2054 C.3     1  UNL1       -0.0041
     49 N          -6.3878  -13.2625   -7.5758 N.ar    1  UNL1       -0.2746
     50 C          -6.6225  -14.5480   -8.0694 C.ar    1  UNL1        0.0969
     51 C          -5.8221  -15.6748   -7.9230 C.ar    1  UNL1        0.0349
     52 C          -6.3950  -16.8539   -8.3941 C.ar    1  UNL1       -0.0293
     53 C          -5.7151  -18.1762   -8.3047 C.3     1  UNL1       -0.0383
     54 C          -7.6063  -16.5726   -8.9581 C.ar    1  UNL1       -0.0077
     55 C          -8.4503  -17.5699   -9.6340 C.3     1  UNL1       -0.0331
     56 S          -8.0569  -14.9215   -8.8464 S.2     1  UNL1       -0.0750
     57 C          -4.5356  -15.7032   -7.3611 C.2     1  UNL1        0.0763
     58 C          -3.4100  -16.5600   -7.7879 C.ar    1  UNL1        0.0007
     59 C          -2.8524  -17.5889   -6.9843 C.ar    1  UNL1       -0.0512
     60 C          -1.7253  -18.2761   -7.4087 C.ar    1  UNL1       -0.0428
     61 C          -1.3094  -18.1028   -8.7189 C.ar    1  UNL1        0.0410
     62 CL         -0.1447  -19.1791   -9.3754 Cl      1  UNL1       -0.0835
     63 C          -1.8850  -17.1194   -9.5286 C.ar    1  UNL1       -0.0428
     64 C          -2.9089  -16.3144   -9.0482 C.ar    1  UNL1       -0.0512
     65 N          -4.3643  -14.9094   -6.4327 N.2     1  UNL1       -0.2707
     66 O          -4.4635  -10.9985   -4.7048 O.2     1  UNL1       -0.2504
     67 O          -4.5417  -11.1357    1.2697 O.2     1  UNL1       -0.2733
     68 O          -6.2574   -7.9839   -0.1132 O.2     1  UNL1       -0.2735
     69 O          -5.2957   -8.2155    5.0965 O.2     1  UNL1       -0.2738
     70 C          -3.1584  -12.6014    2.6074 C.ar    1  UNL1       -0.0565
     71 C          -3.7799  -13.6935    1.8237 C.ar    1  UNL1       -0.0532
     72 H          -5.1133  -17.1878    1.2635 H       1  UNL1        0.0293
     73 H          -3.6163  -16.9970    0.1972 H       1  UNL1        0.0293
     74 H          -4.0660  -15.8830    1.4295 H       1  UNL1        0.0293
     75 H          -7.1328  -15.9246   -2.9701 H       1  UNL1        0.0907
     76 H          -7.1474  -12.5462    1.3746 H       1  UNL1        0.0624
     77 H          -6.1229  -10.6039    2.6585 H       1  UNL1        0.0621
     78 H          -3.6243  -10.4266    4.7899 H       1  UNL1        0.0512
     79 H          -2.3629  -10.2613    3.4622 H       1  UNL1        0.0512
     80 H          -3.5579   -8.6459    2.6673 H       1  UNL1        0.1491
     81 H          -4.0305   -6.1336    2.9016 H       1  UNL1        0.0597
     82 H          -5.0215   -4.8559    4.3256 H       1  UNL1        0.0313
     83 H          -6.4414   -5.9211    4.4742 H       1  UNL1        0.0313
     84 H          -7.1921   -4.1935    2.8966 H       1  UNL1        0.0610
     85 H          -4.7050   -4.4307    1.5266 H       1  UNL1        0.2098
     86 H          -7.6510   -6.4158    1.9497 H       1  UNL1        0.0490
     87 H          -6.7672   -5.6229    0.6009 H       1  UNL1        0.0490
     88 H          -4.5837   -9.3177    1.6295 H       1  UNL1        0.0600
     89 H          -3.6701   -6.1324    0.6512 H       1  UNL1        0.0236
     90 H          -1.9913   -6.1659    0.1741 H       1  UNL1        0.0236
     91 H          -3.2401   -7.0340   -0.7983 H       1  UNL1        0.0236
     92 H          -1.7018   -8.4108    3.0472 H       1  UNL1        0.0236
     93 H          -1.1262   -6.9355    2.3423 H       1  UNL1        0.0236
     94 H          -2.6392   -7.0010    3.0620 H       1  UNL1        0.0236
     95 H          -1.5180   -9.7911    1.1353 H       1  UNL1        0.0236
     96 H          -1.8155   -9.1689   -0.5139 H       1  UNL1        0.0236
     97 H          -0.6434   -8.4061    0.4897 H       1  UNL1        0.0236
     98 H          -3.9015   -9.4719   -1.1168 H       1  UNL1        0.1495
     99 H          -4.9572  -12.6890   -0.5520 H       1  UNL1        0.0656
    100 H          -4.5147  -11.4120   -0.8645 H       1  UNL1        0.0656
    101 H          -1.6633  -11.5892    0.5651 H       1  UNL1        0.0583
    102 H          -0.9391  -12.9662   -0.1812 H       1  UNL1        0.0583
    103 H          -0.6415  -10.8269   -1.6192 H       1  UNL1        0.0583
    104 H          -1.7068  -11.7317   -2.3985 H       1  UNL1        0.0583
    105 H          -3.9346  -11.9728   -1.9462 H       1  UNL1        0.0583
    106 H          -4.7736  -10.8958   -2.5639 H       1  UNL1        0.0583
    107 H          -4.6191  -13.3995   -2.4306 H       1  UNL1        0.0583
    108 H          -3.2381  -12.8590   -3.4826 H       1  UNL1        0.0583
    109 H          -0.6516  -12.9988   -2.0731 H       1  UNL1        0.0594
    110 H          -0.4749  -14.3034   -2.8040 H       1  UNL1        0.0594
    111 H          -0.3679  -11.7487   -4.1184 H       1  UNL1        0.0721
    112 H          -0.9812  -13.0471   -5.1521 H       1  UNL1        0.0721
    113 H          -4.8568  -13.8689   -3.9339 H       1  UNL1        0.0439
    114 H          -2.3278  -14.0282   -4.3056 H       1  UNL1        0.0271
    115 H          -3.1901  -15.3178   -3.5058 H       1  UNL1        0.0271
    116 H          -2.2046  -14.6704   -6.2253 H       1  UNL1        0.0230
    117 H          -1.3177  -15.7263   -5.0825 H       1  UNL1        0.0230
    118 H          -2.9772  -16.1962   -5.3796 H       1  UNL1        0.0230
    119 H          -5.9940  -14.7202   -5.1113 H       1  UNL1        0.0634
    120 H          -6.6505  -11.9978  -10.0117 H       1  UNL1        0.0308
    121 H          -8.2615  -11.9731   -9.1554 H       1  UNL1        0.0308
    122 H          -7.2630  -10.4969   -9.2495 H       1  UNL1        0.0308
    123 H          -4.7732  -18.1520   -8.8550 H       1  UNL1        0.0278
    124 H          -5.5252  -18.4407   -7.2572 H       1  UNL1        0.0278
    125 H          -6.2738  -18.9707   -8.7701 H       1  UNL1        0.0278
    126 H          -9.4005  -17.6798   -9.1183 H       1  UNL1        0.0283
    127 H          -8.5735  -17.3044  -10.6818 H       1  UNL1        0.0283
    128 H          -7.9746  -18.5538   -9.6228 H       1  UNL1        0.0283
    129 H          -3.2599  -17.8404   -6.0001 H       1  UNL1        0.0625
    130 H          -1.2002  -18.9480   -6.7351 H       1  UNL1        0.0632
    131 H          -1.5458  -16.9732  -10.5457 H       1  UNL1        0.0632
    132 H          -3.3757  -15.5545   -9.6628 H       1  UNL1        0.0625
    133 H          -2.0855  -12.2887    2.3482 H       1  UNL1        0.0621
    134 H          -3.0541  -14.2928    1.1859 H       1  UNL1        0.0624
@<TRIPOS>BOND
     1     1     2    1
     2     2     3   ar
     3     3     4   ar
     4     4     5   ar
     5     5     6   ar
     6     2     6   ar
     7     3     7    1
     8     7     8   ar
     9     8     9   ar
    10     9    10   ar
    11    10    11    1
    12    11    12    1
    13    12    13   am
    14    14    15    1
    15    15    16    1
    16    16    17    1
    17    16    18    1
    18    18    19    1
    19    14    19    1
    20    19    20   am
    21    22    23    1
    22    22    24    1
    23    22    25    1
    24    21    26    1
    25    26    27   am
    26    27    28    1
    27    28    29    1
    28    29    30    1
    29    30    31    1
    30    31    32    1
    31    32    33    1
    32    33    34    1
    33    34    35    1
    34    35    36    1
    35    36    37    1
    36    37    38    1
    37    38    39    1
    38    41    42    1
    39    40    43    1
    40    43    44    1
    41    44    45   ar
    42    45    46   ar
    43    46    47   ar
    44    47    48    1
    45    47    49   ar
    46    44    49   ar
    47    49    50    1
    48    50    51   ar
    49    51    52   ar
    50    52    53    1
    51    52    54   ar
    52    54    55    1
    53    54    56   ar
    54    50    56   ar
    55    51    57    1
    56    57    58    1
    57    58    59   ar
    58    59    60   ar
    59    60    61   ar
    60    61    62    1
    61    61    63   ar
    62    63    64   ar
    63    58    64   ar
    64    57    65    2
    65    43    65    1
    66    39    66    2
    67    27    67    2
    68    20    68    2
    69    13    69    2
    70    10    70   ar
    71    70    71   ar
    72     7    71   ar
    73     1    72    1
    74     1    73    1
    75     1    74    1
    76     5    75    1
    77     8    76    1
    78     9    77    1
    79    11    78    1
    80    11    79    1
    81    12    80    1
    82    15    82    1
    83    15    83    1
    84    16    84    1
    85    17    85    1
    86    18    86    1
    87    18    87    1
    88    21    88    1
    89    23    89    1
    90    23    90    1
    91    23    91    1
    92    24    92    1
    93    24    93    1
    94    24    94    1
    95    25    95    1
    96    25    96    1
    97    25    97    1
    98    26    98    1
    99    28    99    1
   100    28   100    1
   101    30   101    1
   102    30   102    1
   103    31   103    1
   104    31   104    1
   105    33   105    1
   106    33   106    1
   107    34   107    1
   108    34   108    1
   109    36   109    1
   110    36   110    1
   111    37   111    1
   112    37   112    1
   113    40   113    1
   114    41   114    1
   115    41   115    1
   116    42   116    1
   117    42   117    1
   118    42   118    1
   119    43   119    1
   120    48   120    1
   121    48   121    1
   122    48   122    1
   123    53   123    1
   124    53   124    1
   125    53   125    1
   126    55   126    1
   127    55   127    1
   128    55   128    1
   129    59   129    1
   130    60   130    1
   131    63   131    1
   132    64   132    1
   133    70   133    1
   134    71   134    1
   135    14    81    1
   136    14    13    1
   137    21    22    1
   138    21    20    1
   139    40    41    1
   140    40    39    1
