@<TRIPOS>MOLECULE
*****
 144 150 0 0 0
SMALL
GASTEIGER

@<TRIPOS>ATOM
      1 C           2.3184   -0.2954   -0.0988 C.3     1  UNL1       -0.0643
      2 C           1.1876    0.6567   -0.4769 C.3     1  UNL1       -0.0407
      3 C           1.3743    1.7403   -1.7029 C.3     1  UNL1        0.0607
      4 C           0.1095    2.5094   -2.6677 C.2     1  UNL1        0.2237
      5 O          -0.0138    2.1703   -3.8521 O.2     1  UNL1       -0.2749
      6 N          -0.8762    3.4315   -2.1078 N.am    1  UNL1       -0.2875
      7 C          -2.4839    3.3713   -2.0991 C.3     1  UNL1        0.0155
      8 C          -3.4013    4.4423   -2.4190 C.3     1  UNL1       -0.0371
      9 C          -2.8994    5.4797   -1.4415 C.3     1  UNL1       -0.0494
     10 C          -1.3216    5.5432   -1.2600 C.3     1  UNL1       -0.0238
     11 C          -0.4579    4.2640   -1.0374 C.3     1  UNL1        0.1229
     12 C          -0.4488    3.6934    0.3701 C.2     1  UNL1        0.3284
     13 O          -0.1371    4.4379    1.3097 O.2     1  UNL1       -0.2487
     14 O          -0.8864    2.4229    0.6102 O.3     1  UNL1       -0.4552
     15 C          -1.8965    1.1371    0.3166 C.3     1  UNL1        0.1318
     16 C          -1.6423    1.0579   -1.1230 C.3     1  UNL1       -0.0073
     17 C          -2.1395    0.6031   -2.5006 C.3     1  UNL1       -0.0239
     18 C          -3.6059    0.4800   -2.7806 C.ar    1  UNL1       -0.0435
     19 C          -4.5562    0.9746   -1.9417 C.ar    1  UNL1       -0.0549
     20 C          -5.8723    0.6273   -2.0000 C.ar    1  UNL1       -0.0160
     21 C          -6.3562   -0.0777   -3.0086 C.ar    1  UNL1        0.1615
     22 O          -7.5991   -0.4867   -2.6870 O.3     1  UNL1       -0.4915
     23 C          -8.4187   -0.7088   -3.7891 C.3     1  UNL1        0.0790
     24 C          -5.5391   -0.1057   -4.1038 C.ar    1  UNL1        0.1617
     25 O          -6.1572   -0.4952   -5.2380 O.3     1  UNL1       -0.4914
     26 C          -5.3264   -0.3511   -6.3507 C.3     1  UNL1        0.0790
     27 C          -4.1593    0.2484   -4.0065 C.ar    1  UNL1       -0.0131
     28 C          -3.3788    1.0583    0.7705 C.ar    1  UNL1        0.0344
     29 C          -3.9005   -0.2280    0.4857 C.ar    1  UNL1       -0.0516
     30 C          -5.2749   -0.4936    0.5328 C.ar    1  UNL1       -0.0612
     31 C          -6.1944    0.5143    0.8825 C.ar    1  UNL1       -0.0583
     32 C          -5.7344    1.8145    1.0626 C.ar    1  UNL1       -0.0195
     33 C          -4.3430    2.0714    1.0860 C.ar    1  UNL1        0.1279
     34 O          -4.1324    3.3931    1.3381 O.3     1  UNL1       -0.4824
     35 C          -2.7909    3.6830    1.6520 C.3     1  UNL1        0.1652
     36 C          -1.9196    2.7061    2.6551 C.2     1  UNL1        0.2507
     37 O          -0.9088    1.9984    2.6309 O.2     1  UNL1       -0.2721
     38 N          -2.4894    2.5237    3.7965 N.am    1  UNL1       -0.3125
     39 C          -3.5891    3.2919    4.1705 C.3     1  UNL1        0.0117
     40 C          -4.6476    2.2842    4.4833 C.3     1  UNL1       -0.0374
     41 C          -4.0357    1.3547    5.4970 C.3     1  UNL1       -0.0515
     42 C          -3.4410    2.3350    6.5338 C.3     1  UNL1       -0.0499
     43 C          -4.4923    3.0106    7.3409 C.3     1  UNL1       -0.0186
     44 C          -5.2227    1.8334    7.9479 C.3     1  UNL1        0.0896
     45 O          -4.2134    1.1339    8.8260 O.3     1  UNL1       -0.4912
     46 C          -3.1715    0.1806    8.4394 C.ar    1  UNL1        0.1333
     47 C          -3.7458   -1.0821    8.7517 C.ar    1  UNL1       -0.0191
     48 C          -2.9161   -2.1222    8.6364 C.ar    1  UNL1       -0.0575
     49 C          -1.9444   -1.8716    7.7353 C.ar    1  UNL1       -0.0487
     50 C          -1.8206   -0.6190    7.1038 C.ar    1  UNL1        0.0530
     51 C          -1.7557    0.4487    7.9395 C.ar    1  UNL1        0.0910
     52 C          -0.0282    0.4693    7.3499 C.2     1  UNL1        0.2580
     53 O           0.7870    1.4094    7.3033 O.2     1  UNL1       -0.2694
     54 N           0.2421   -0.4916    6.3944 N.am    1  UNL1       -0.2219
     55 C           0.6683   -1.8638    6.7359 C.3     1  UNL1        0.1109
     56 C           2.1637   -2.0603    6.5917 C.3     1  UNL1       -0.0170
     57 C           2.5479   -2.0503    5.1200 C.3     1  UNL1        0.0265
     58 C           1.6368   -2.9392    4.2893 C.2     1  UNL1        0.2193
     59 O           2.0163   -3.8736    3.6137 O.2     1  UNL1       -0.2754
     60 N           0.3223   -2.6071    4.4420 N.am    1  UNL1       -0.2548
     61 C          -0.0143   -2.8618    5.7283 C.2     1  UNL1        0.2402
     62 O          -0.7422   -3.8030    6.0185 O.2     1  UNL1       -0.2733
     63 C          -0.9969   -0.2235    5.9513 C.2     1  UNL1        0.2546
     64 O          -1.2317    0.7183    5.2685 O.2     1  UNL1       -0.2695
     65 C           2.3278    1.0088   -2.6498 C.ar    1  UNL1       -0.0284
     66 C           1.9279    0.1210   -3.6594 C.ar    1  UNL1       -0.0122
     67 C           2.8716   -0.6175   -4.3817 C.ar    1  UNL1        0.1654
     68 O           2.3117   -1.4695   -5.3095 O.3     1  UNL1       -0.4913
     69 C           3.2009   -2.3646   -5.9697 C.3     1  UNL1        0.0790
     70 C           4.2410   -0.4484   -4.0996 C.ar    1  UNL1        0.2035
     71 O           5.1120   -1.0521   -4.9626 O.3     1  UNL1       -0.4885
     72 C           6.5005   -0.8875   -4.7838 C.3     1  UNL1        0.0791
     73 C           4.6308    0.3306   -2.9983 C.ar    1  UNL1        0.1654
     74 O           5.9383    0.3058   -2.6095 O.3     1  UNL1       -0.4913
     75 C           6.3097    1.0121   -1.4422 C.3     1  UNL1        0.0790
     76 C           3.6808    1.0731   -2.3166 C.ar    1  UNL1       -0.0122
     77 H           2.5156   -0.9867   -0.9232 H       1  UNL1        0.0230
     78 H           2.0467   -0.9227    0.7596 H       1  UNL1        0.0230
     79 H           3.2099    0.2645    0.1740 H       1  UNL1        0.0230
     80 H           0.3840   -0.0665   -0.6694 H       1  UNL1        0.0273
     81 H           0.9544    1.1975    0.4451 H       1  UNL1        0.0273
     82 H           1.9071    2.5809   -1.2430 H       1  UNL1        0.0443
     83 H          -2.8090    3.2994   -1.0407 H       1  UNL1        0.0465
     84 H          -2.9561    2.5153   -2.4691 H       1  UNL1        0.0465
     85 H          -4.4271    4.0722   -2.1525 H       1  UNL1        0.0280
     86 H          -3.3419    4.5212   -3.4992 H       1  UNL1        0.0280
     87 H          -3.3049    6.4193   -1.7853 H       1  UNL1        0.0266
     88 H          -3.3656    5.2886   -0.4618 H       1  UNL1        0.0266
     89 H          -0.9768    5.8948   -2.2371 H       1  UNL1        0.0288
     90 H          -1.0925    6.2766   -0.4936 H       1  UNL1        0.0288
     91 H           0.6158    4.4660   -1.1580 H       1  UNL1        0.0616
     92 H          -1.3651    0.2876    0.7417 H       1  UNL1        0.0786
     93 H          -1.8042    2.0575   -1.0574 H       1  UNL1        0.0307
     94 H          -0.6140    1.2231   -1.2018 H       1  UNL1        0.0307
     95 H          -1.8709    1.3387   -3.2825 H       1  UNL1        0.0314
     96 H          -1.4930   -0.2236   -2.7739 H       1  UNL1        0.0314
     97 H          -4.3144    1.6247   -1.1422 H       1  UNL1        0.0621
     98 H          -6.5681    0.7636   -1.2078 H       1  UNL1        0.0655
     99 H          -8.4284    0.1909   -4.4099 H       1  UNL1        0.0660
    100 H          -8.0481   -1.6010   -4.2885 H       1  UNL1        0.0660
    101 H          -9.4239   -0.8900   -3.4115 H       1  UNL1        0.0660
    102 H          -5.0812    0.7090   -6.4821 H       1  UNL1        0.0660
    103 H          -4.4356   -0.9739   -6.2202 H       1  UNL1        0.0660
    104 H          -5.9109   -0.7117   -7.1848 H       1  UNL1        0.0660
    105 H          -3.5198    0.4189   -4.8692 H       1  UNL1        0.0658
    106 H          -3.2853   -0.9041   -0.1265 H       1  UNL1        0.0623
    107 H          -5.6135   -1.3295   -0.0959 H       1  UNL1        0.0618
    108 H          -7.2584    0.3900    0.6500 H       1  UNL1        0.0619
    109 H          -6.4520    2.6467    1.0208 H       1  UNL1        0.0654
    110 H          -2.4368    3.8479    0.6697 H       1  UNL1        0.0795
    111 H          -2.7365    4.7103    2.0384 H       1  UNL1        0.0795
    112 H          -1.9195    1.8609    4.3479 H       1  UNL1        0.1488
    113 H          -3.1585    3.9652    4.9062 H       1  UNL1        0.0462
    114 H          -3.9583    3.9994    3.4526 H       1  UNL1        0.0462
    115 H          -5.5125    2.8169    4.8598 H       1  UNL1        0.0280
    116 H          -4.9503    1.7034    3.6120 H       1  UNL1        0.0280
    117 H          -4.7550    0.6046    5.8232 H       1  UNL1        0.0266
    118 H          -3.3075    0.6862    5.0349 H       1  UNL1        0.0266
    119 H          -2.8776    1.8928    7.2785 H       1  UNL1        0.0266
    120 H          -2.6075    2.9669    6.2358 H       1  UNL1        0.0266
    121 H          -4.0103    3.5543    8.1568 H       1  UNL1        0.0298
    122 H          -5.0637    3.7301    6.7474 H       1  UNL1        0.0298
    123 H          -6.0371    2.2538    8.5541 H       1  UNL1        0.0696
    124 H          -5.7857    1.2243    7.2128 H       1  UNL1        0.0696
    125 H          -4.7617   -1.2343    9.0867 H       1  UNL1        0.0654
    126 H          -3.0437   -3.1071    9.0553 H       1  UNL1        0.0619
    127 H          -1.3213   -2.7262    7.6171 H       1  UNL1        0.0625
    128 H           0.4652   -2.0525    7.7937 H       1  UNL1        0.0602
    129 H           2.6894   -1.2737    7.1397 H       1  UNL1        0.0293
    130 H           2.4357   -3.0236    7.0486 H       1  UNL1        0.0293
    131 H           2.4199   -1.0396    4.7214 H       1  UNL1        0.0359
    132 H           3.5882   -2.3498    4.9955 H       1  UNL1        0.0359
    133 H          -0.2865   -3.0966    3.8003 H       1  UNL1        0.1575
    134 H           0.8794   -0.0123   -3.9182 H       1  UNL1        0.0658
    135 H           3.8504   -1.8082   -6.6535 H       1  UNL1        0.0660
    136 H           3.7685   -2.9690   -5.2500 H       1  UNL1        0.0660
    137 H           2.6267   -3.0574   -6.5875 H       1  UNL1        0.0660
    138 H           6.7811    0.1706   -4.8135 H       1  UNL1        0.0660
    139 H           6.8147   -1.3937   -3.8672 H       1  UNL1        0.0660
    140 H           7.0006   -1.3856   -5.6148 H       1  UNL1        0.0660
    141 H           6.0950    2.0789   -1.5527 H       1  UNL1        0.0660
    142 H           5.8216    0.5878   -0.5587 H       1  UNL1        0.0660
    143 H           7.3886    0.8946   -1.3280 H       1  UNL1        0.0660
    144 H           3.9529    1.6490   -1.4377 H       1  UNL1        0.0658
@<TRIPOS>BOND
     1     1     2    1
     2     4     5    2
     3     4     6   am
     4     6     7    1
     5     7     8    1
     6     8     9    1
     7     9    10    1
     8    10    11    1
     9     6    11    1
    10    12    13    2
    11    12    14    1
    12    16    17    1
    13    17    18    1
    14    18    19   ar
    15    19    20   ar
    16    20    21   ar
    17    21    22    1
    18    22    23    1
    19    21    24   ar
    20    24    25    1
    21    25    26    1
    22    24    27   ar
    23    18    27   ar
    24    15    28    1
    25    28    29   ar
    26    29    30   ar
    27    30    31   ar
    28    31    32   ar
    29    32    33   ar
    30    28    33   ar
    31    33    34    1
    32    34    35    1
    33    35    36    1
    34    36    37    2
    35    36    38   am
    36    38    39    1
    37    39    40    1
    38    40    41    1
    39    41    42    1
    40    42    43    1
    41    43    44    1
    42    44    45    1
    43    45    46    1
    44    46    47   ar
    45    47    48   ar
    46    48    49   ar
    47    49    50   ar
    48    50    51   ar
    49    46    51   ar
    50    51    52    1
    51    52    53    2
    52    52    54   am
    53    54    55    1
    54    55    56    1
    55    56    57    1
    56    57    58    1
    57    58    59    2
    58    58    60   am
    59    60    61   am
    60    55    61    1
    61    61    62    2
    62    54    63   am
    63    50    63    1
    64    63    64    2
    65     3    65    1
    66    65    66   ar
    67    66    67   ar
    68    67    68    1
    69    68    69    1
    70    67    70   ar
    71    70    71    1
    72    71    72    1
    73    70    73   ar
    74    73    74    1
    75    74    75    1
    76    73    76   ar
    77    65    76   ar
    78     1    77    1
    79     1    78    1
    80     1    79    1
    81     2    80    1
    82     2    81    1
    83     3    82    1
    84     7    83    1
    85     7    84    1
    86     8    85    1
    87     8    86    1
    88     9    87    1
    89     9    88    1
    90    10    89    1
    91    10    90    1
    92    15    92    1
    93    16    93    1
    94    16    94    1
    95    17    95    1
    96    17    96    1
    97    19    97    1
    98    20    98    1
    99    23    99    1
   100    23   100    1
   101    23   101    1
   102    26   102    1
   103    26   103    1
   104    26   104    1
   105    27   105    1
   106    29   106    1
   107    30   107    1
   108    31   108    1
   109    32   109    1
   110    35   110    1
   111    35   111    1
   112    38   112    1
   113    39   113    1
   114    39   114    1
   115    40   115    1
   116    40   116    1
   117    41   117    1
   118    41   118    1
   119    42   119    1
   120    42   120    1
   121    43   121    1
   122    43   122    1
   123    44   123    1
   124    44   124    1
   125    47   125    1
   126    48   126    1
   127    49   127    1
   128    55   128    1
   129    56   129    1
   130    56   130    1
   131    57   131    1
   132    57   132    1
   133    60   133    1
   134    66   134    1
   135    69   135    1
   136    69   136    1
   137    69   137    1
   138    72   138    1
   139    72   139    1
   140    72   140    1
   141    75   141    1
   142    75   142    1
   143    75   143    1
   144    76   144    1
   145    15    16    1
   146    15    14    1
   147    11    91    1
   148    11    12    1
   149     3     4    1
   150     3     2    1
