@<TRIPOS>MOLECULE
*****
 135 141 0 0 0
SMALL
GASTEIGER

@<TRIPOS>ATOM
      1 C           1.0549    0.0434    0.0885 C.3     1  UNL1       -0.0613
      2 C           0.5849   -0.4505   -1.2576 C.3     1  UNL1       -0.0305
      3 C           1.1978   -1.7781   -1.4794 C.ar    1  UNL1       -0.0459
      4 C           0.3457   -2.8108   -1.6360 C.ar    1  UNL1       -0.0371
      5 C           0.8601   -4.0611   -1.6502 C.ar    1  UNL1        0.0366
      6 C           2.2244   -4.2450   -1.7666 C.ar    1  UNL1       -0.0403
      7 C           3.1044   -3.2533   -1.5618 C.ar    1  UNL1       -0.0597
      8 C           2.5714   -2.0037   -1.4808 C.ar    1  UNL1       -0.0585
      9 N           0.0428   -5.1409   -1.3761 N.am    1  UNL1       -0.2702
     10 C          -1.6966   -4.5129   -1.4103 C.3     1  UNL1        0.0170
     11 C          -2.8352   -5.1559   -2.2723 C.3     1  UNL1       -0.0489
     12 C           0.9836   -6.2703   -0.7120 C.2     1  UNL1        0.2396
     13 O           2.2306   -6.3697   -0.7582 O.2     1  UNL1       -0.2733
     14 C           0.7195   -7.6407   -0.2162 C.3     1  UNL1        0.1007
     15 N          -0.1074   -8.2474    1.0858 N.ar    1  UNL1       -0.3273
     16 C           0.2019   -8.3000    2.4496 C.ar    1  UNL1        0.0501
     17 C          -0.4979   -8.6805    3.5821 C.ar    1  UNL1       -0.0376
     18 C          -0.0162   -7.9290    4.6600 C.ar    1  UNL1       -0.0598
     19 C           1.1119   -7.0206    4.5080 C.ar    1  UNL1       -0.0611
     20 C           1.5599   -6.5268    3.2762 C.ar    1  UNL1       -0.0526
     21 C           0.5467   -7.0009    2.5056 C.ar    1  UNL1        0.0006
     22 C          -0.4748   -6.6901    1.6649 C.ar    1  UNL1       -0.0239
     23 C          -1.7074   -8.0196    1.2290 C.ar    1  UNL1        0.1058
     24 C          -3.2541   -8.3145    0.2286 C.2     1  UNL1        0.2608
     25 O          -3.5050   -8.8564   -1.0005 O.2     1  UNL1       -0.2686
     26 N          -4.7897   -7.8847    0.0155 N.am    1  UNL1       -0.3073
     27 C          -5.8541   -7.5605    0.9588 C.3     1  UNL1        0.0235
     28 C          -5.6710   -8.7686    1.9500 C.3     1  UNL1       -0.0338
     29 C          -5.9193   -8.3511    3.3831 C.3     1  UNL1       -0.0403
     30 C          -5.4159   -6.9375    3.8611 C.3     1  UNL1        0.0357
     31 C          -5.9875   -5.7980    2.9323 C.3     1  UNL1       -0.0403
     32 C          -5.7905   -5.9916    1.4402 C.3     1  UNL1       -0.0338
     33 C          -3.8547   -6.8000    4.2002 C.2     1  UNL1        0.2161
     34 O          -3.3780   -6.7831    5.3277 O.2     1  UNL1       -0.2755
     35 N          -2.9841   -6.6157    3.1846 N.am    1  UNL1       -0.3151
     36 C          -3.4431   -6.9852    1.9618 C.3     1  UNL1        0.0116
     37 C          -3.2522   -6.0532    0.6000 C.3     1  UNL1       -0.0374
     38 C          -2.0060   -6.4134   -0.1044 C.3     1  UNL1       -0.0516
     39 C          -1.4776   -8.0407   -0.8336 C.3     1  UNL1       -0.0530
     40 C          -1.6373   -8.0478   -2.2719 C.3     1  UNL1       -0.0526
     41 C          -1.0292   -7.1512   -3.2065 C.3     1  UNL1       -0.0448
     42 C           0.3927   -7.3637   -3.4533 C.3     1  UNL1        0.0240
     43 C           0.7805   -8.8158   -3.6612 C.2     1  UNL1        0.2130
     44 O           1.5283   -8.9841   -4.6271 O.2     1  UNL1       -0.2758
     45 N           0.5051   -9.9591   -2.8995 N.am    1  UNL1       -0.3153
     46 C          -0.1652  -10.3398   -1.6455 C.3     1  UNL1        0.0116
     47 C          -1.6629  -10.8324   -1.4206 C.3     1  UNL1       -0.0360
     48 C          -1.4794  -12.2686   -1.4755 C.3     1  UNL1       -0.0361
     49 C          -0.5333  -12.7477   -0.3122 C.3     1  UNL1        0.0092
     50 N          -0.9136  -12.5842    1.1115 N.pl3   1  UNL1       -0.3432
     51 C          -1.1169  -13.6414    2.1126 C.ar    1  UNL1        0.0401
     52 C          -2.5583  -13.5134    2.4347 C.ar    1  UNL1       -0.0401
     53 C          -3.0789  -14.4197    3.2548 C.ar    1  UNL1       -0.0593
     54 C          -2.4340  -15.5972    3.0555 C.ar    1  UNL1       -0.0488
     55 C          -1.0961  -15.6785    2.4621 C.ar    1  UNL1        0.0512
     56 C          -0.1127  -14.7106    2.5561 C.ar    1  UNL1        0.0702
     57 C           0.7419  -16.0643    3.5940 C.2     1  UNL1        0.2563
     58 O           1.9008  -16.5207    3.7065 O.2     1  UNL1       -0.2694
     59 N          -0.0697  -17.1554    3.6477 N.am    1  UNL1       -0.2220
     60 C          -0.2716  -16.8414    2.3728 C.2     1  UNL1        0.2546
     61 O           0.5704  -16.8048    1.4467 O.2     1  UNL1       -0.2695
     62 C          -1.0619  -17.3623    4.7926 C.3     1  UNL1        0.1109
     63 C          -1.4294  -16.0471    5.5420 C.3     1  UNL1       -0.0170
     64 C          -0.4637  -15.7148    6.6265 C.3     1  UNL1        0.0265
     65 C          -0.5580  -16.7718    7.6623 C.2     1  UNL1        0.2193
     66 O          -0.4688  -16.5167    8.8560 O.2     1  UNL1       -0.2754
     67 N          -0.7199  -18.0496    7.1773 N.am    1  UNL1       -0.2548
     68 C          -0.8859  -18.4627    5.8666 C.2     1  UNL1        0.2402
     69 O          -0.9730  -19.6620    5.6053 O.2     1  UNL1       -0.2733
     70 H           0.6997   -0.6058    0.9010 H       1  UNL1        0.0233
     71 H           0.6882    1.0534    0.2463 H       1  UNL1        0.0233
     72 H           2.1479    0.0517    0.1377 H       1  UNL1        0.0233
     73 H          -0.5163   -0.4987   -1.2626 H       1  UNL1        0.0311
     74 H           0.8992    0.1671   -2.0945 H       1  UNL1        0.0311
     75 H          -0.6764   -2.5288   -1.7061 H       1  UNL1        0.0639
     76 H           2.7100   -5.1747   -2.0054 H       1  UNL1        0.0636
     77 H           4.1467   -3.5255   -1.5348 H       1  UNL1        0.0618
     78 H           3.2470   -1.1768   -1.4662 H       1  UNL1        0.0620
     79 H          -1.9578   -4.3498   -0.3560 H       1  UNL1        0.0466
     80 H          -1.9251   -3.4742   -1.5551 H       1  UNL1        0.0466
     81 H          -2.9077   -6.1540   -2.0229 H       1  UNL1        0.0245
     82 H          -3.9022   -5.0739   -2.0257 H       1  UNL1        0.0245
     83 H          -2.6359   -5.1762   -3.3363 H       1  UNL1        0.0245
     84 H           0.2266   -7.6879   -1.1614 H       1  UNL1        0.0588
     85 H           1.3501   -8.4786   -0.5240 H       1  UNL1        0.0588
     86 H          -1.4650   -9.1769    3.5099 H       1  UNL1        0.0638
     87 H          -0.5668   -7.9662    5.5895 H       1  UNL1        0.0618
     88 H           1.5932   -6.6465    5.3973 H       1  UNL1        0.0618
     89 H           2.1963   -5.6610    3.1214 H       1  UNL1        0.0624
     90 H          -0.0888   -5.8208    1.0949 H       1  UNL1        0.0646
     91 H          -5.1254   -7.9919   -0.9595 H       1  UNL1        0.1493
     92 H          -6.8523   -7.6264    0.5030 H       1  UNL1        0.0498
     93 H          -6.0850   -9.6963    1.5225 H       1  UNL1        0.0283
     94 H          -4.6618   -9.2132    2.0195 H       1  UNL1        0.0283
     95 H          -5.4626   -9.1138    4.0212 H       1  UNL1        0.0273
     96 H          -7.0019   -8.3629    3.4539 H       1  UNL1        0.0273
     97 H          -5.8403   -6.7593    4.8432 H       1  UNL1        0.0394
     98 H          -5.4757   -4.8619    3.2277 H       1  UNL1        0.0273
     99 H          -7.0550   -5.7105    3.0141 H       1  UNL1        0.0273
    100 H          -4.8301   -5.5310    1.5652 H       1  UNL1        0.0283
    101 H          -5.9726   -5.2516    0.6389 H       1  UNL1        0.0283
    102 H          -2.0047   -6.8084    3.3338 H       1  UNL1        0.1487
    103 H          -3.3457   -8.0913    2.0188 H       1  UNL1        0.0462
    104 H          -4.4221   -7.1557    2.1292 H       1  UNL1        0.0462
    105 H          -3.9549   -6.0866   -0.2275 H       1  UNL1        0.0280
    106 H          -3.3147   -4.9825    0.8758 H       1  UNL1        0.0280
    107 H          -1.1228   -5.8826   -0.2229 H       1  UNL1        0.0266
    108 H          -1.7978   -5.8506    0.8470 H       1  UNL1        0.0266
    109 H          -0.7785   -8.7821   -0.4035 H       1  UNL1        0.0265
    110 H          -1.8229   -9.0098   -0.3813 H       1  UNL1        0.0265
    111 H          -1.9508   -8.9352   -2.7665 H       1  UNL1        0.0265
    112 H          -2.4814   -7.5559   -1.9867 H       1  UNL1        0.0265
    113 H          -1.7273   -7.1350   -4.0431 H       1  UNL1        0.0270
    114 H          -1.0424   -6.1821   -2.7957 H       1  UNL1        0.0270
    115 H           0.6170   -6.5353   -4.1478 H       1  UNL1        0.0358
    116 H           1.1173   -7.0443   -2.7277 H       1  UNL1        0.0358
    117 H           0.9826  -10.7418   -3.2769 H       1  UNL1        0.1487
    118 H           0.4361  -10.3990   -0.7161 H       1  UNL1        0.0462
    119 H          -0.2926   -9.3528   -1.6643 H       1  UNL1        0.0462
    120 H          -2.1930  -10.6801   -0.4498 H       1  UNL1        0.0281
    121 H          -2.4131  -10.5035   -2.1529 H       1  UNL1        0.0281
    122 H          -2.4850  -12.6805   -1.5444 H       1  UNL1        0.0281
    123 H          -1.0013  -12.3276   -2.4674 H       1  UNL1        0.0281
    124 H          -0.2743  -13.7513   -0.5845 H       1  UNL1        0.0461
    125 H           0.4011  -12.1826   -0.3355 H       1  UNL1        0.0461
    126 H          -1.5020  -11.7602    1.2888 H       1  UNL1        0.1461
    127 H          -3.2478  -12.7749    2.0117 H       1  UNL1        0.0636
    128 H          -3.9505  -14.2806    3.8799 H       1  UNL1        0.0618
    129 H          -2.8929  -16.3952    3.6185 H       1  UNL1        0.0625
    130 H          -1.9458  -17.7870    4.2818 H       1  UNL1        0.0602
    131 H          -2.4718  -16.0479    5.9036 H       1  UNL1        0.0293
    132 H          -1.2991  -15.1632    4.9354 H       1  UNL1        0.0293
    133 H          -0.7477  -14.7346    7.0240 H       1  UNL1        0.0359
    134 H           0.5473  -15.6495    6.2194 H       1  UNL1        0.0359
    135 H          -0.7092  -18.7791    7.8774 H       1  UNL1        0.1575
@<TRIPOS>BOND
     1     1     2    1
     2     2     3    1
     3     3     4   ar
     4     4     5   ar
     5     5     6   ar
     6     6     7   ar
     7     7     8   ar
     8     3     8   ar
     9     5     9    1
    10     9    10    1
    11    10    11    1
    12     9    12   am
    13    12    13    2
    14    12    14    1
    15    14    15    1
    16    15    16   ar
    17    16    17   ar
    18    17    18   ar
    19    18    19   ar
    20    19    20   ar
    21    20    21   ar
    22    16    21   ar
    23    21    22   ar
    24    22    23   ar
    25    15    23   ar
    26    23    24    1
    27    24    25    2
    28    24    26   am
    29    26    27    1
    30    27    28    1
    31    28    29    1
    32    29    30    1
    33    30    31    1
    34    31    32    1
    35    27    32    1
    36    30    33    1
    37    33    34    2
    38    33    35   am
    39    35    36    1
    40    36    37    1
    41    37    38    1
    42    38    39    1
    43    39    40    1
    44    40    41    1
    45    41    42    1
    46    42    43    1
    47    43    44    2
    48    43    45   am
    49    45    46    1
    50    46    47    1
    51    47    48    1
    52    48    49    1
    53    49    50    1
    54    50    51    1
    55    51    52   ar
    56    52    53   ar
    57    53    54   ar
    58    54    55   ar
    59    55    56   ar
    60    51    56   ar
    61    56    57    1
    62    57    58    2
    63    57    59   am
    64    59    60   am
    65    55    60    1
    66    60    61    2
    67    59    62    1
    68    62    63    1
    69    63    64    1
    70    64    65    1
    71    65    66    2
    72    65    67   am
    73    67    68   am
    74    62    68    1
    75    68    69    2
    76     1    70    1
    77     1    71    1
    78     1    72    1
    79     2    73    1
    80     2    74    1
    81     4    75    1
    82     6    76    1
    83     7    77    1
    84     8    78    1
    85    10    79    1
    86    10    80    1
    87    11    81    1
    88    11    82    1
    89    11    83    1
    90    14    84    1
    91    14    85    1
    92    17    86    1
    93    18    87    1
    94    19    88    1
    95    20    89    1
    96    22    90    1
    97    26    91    1
    98    27    92    1
    99    28    93    1
   100    28    94    1
   101    29    95    1
   102    29    96    1
   103    30    97    1
   104    31    98    1
   105    31    99    1
   106    32   100    1
   107    32   101    1
   108    35   102    1
   109    36   103    1
   110    36   104    1
   111    37   105    1
   112    37   106    1
   113    38   107    1
   114    38   108    1
   115    39   109    1
   116    39   110    1
   117    40   111    1
   118    40   112    1
   119    41   113    1
   120    41   114    1
   121    42   115    1
   122    42   116    1
   123    45   117    1
   124    46   118    1
   125    46   119    1
   126    47   120    1
   127    47   121    1
   128    48   122    1
   129    48   123    1
   130    49   124    1
   131    49   125    1
   132    50   126    1
   133    52   127    1
   134    53   128    1
   135    54   129    1
   136    62   130    1
   137    63   131    1
   138    63   132    1
   139    64   133    1
   140    64   134    1
   141    67   135    1
