@<TRIPOS>MOLECULE
*****
 20 22 0 0 0
SMALL
GASTEIGER

@<TRIPOS>ATOM
      1 N         -15.3358   -5.7915   14.6849 N.am    1  UNL1       -0.2158
      2 C         -16.3740   -5.1925   14.0147 C.2     1  UNL1        0.2554
      3 O         -17.4928   -5.6161   13.7987 O.2     1  UNL1       -0.2695
      4 C         -15.8704   -3.9139   13.5096 C.ar    1  UNL1        0.0584
      5 C         -16.4899   -2.8853   12.8311 C.ar    1  UNL1        0.0047
      6 C         -15.7055   -1.7679   12.5114 C.ar    1  UNL1        0.0001
      7 C         -14.3393   -1.7085   12.8605 C.ar    1  UNL1        0.0001
      8 C         -13.7328   -2.7679   13.5300 C.ar    1  UNL1        0.0047
      9 C         -14.5316   -3.8500   13.8337 C.ar    1  UNL1        0.0584
     10 C         -14.1724   -5.0916   14.4912 C.2     1  UNL1        0.2554
     11 O         -13.0172   -5.3841   14.7123 O.2     1  UNL1       -0.2695
     12 O         -18.0629  -10.2993   15.8108 O.2     1  UNL1       -0.2747
     13 C         -17.2528   -9.3861   15.6944 C.2     1  UNL1        0.2282
     14 C         -16.7831   -8.5642   16.8655 C.3     1  UNL1        0.0877
     15 C         -16.4888   -7.1430   16.4258 C.3     1  UNL1        0.0392
     16 C         -15.4310   -7.1100   15.3188 C.3     1  UNL1        0.1598
     17 C         -15.6072   -8.2400   14.2849 C.2     1  UNL1        0.2466
     18 O         -14.8529   -8.3969   13.3256 O.2     1  UNL1       -0.2729
     19 N         -16.6391   -9.1184   14.4992 N.am    1  UNL1       -0.2540
     20 H         -16.8208   -9.7717   13.7492 H       1  UNL1        0.1576
@<TRIPOS>BOND
     1    12    13    2
     2    13    14    1
     3    14    15    1
     4    15    16    1
     5    16     1    1
     6     1     2   am
     7     2     3    2
     8     2     4    1
     9     4     5   ar
    10     5     6   ar
    11     6     7   ar
    12     7     8   ar
    13     8     9   ar
    14     4     9   ar
    15     9    10    1
    16     1    10   am
    17    10    11    2
    18    16    17    1
    19    17    18    2
    20    17    19   am
    21    13    19   am
    22    19    20    1
